22

N 1.2460836172103882 -1.2816307544708252 0.4048018455505371 
C 1.1583406925201416 0.08463669568300247 0.18573227524757385 
C 1.302359938621521 0.9415384531021118 1.4678113460540771 
O 2.200894832611084 0.4506451487541199 -0.7800819277763367 
C -0.1341286301612854 0.4436837434768677 -0.6572985649108887 
N -0.08329175412654877 1.8006834983825684 -1.0031397342681885 
O -1.20285165309906 -1.520798683166504 -0.47760334610939026 
C -2.4647903442382812 -1.556046724319458 -1.0770121812820435 
H 2.085609197616577 -1.5463738441467285 0.9621414542198181 
H 0.37642085552215576 -1.6141114234924316 0.8199859261512756 
H 0.5880839228630066 0.563285231590271 2.2392666339874268 
H 2.33890962600708 0.8602024912834167 1.881658911705017 
H 1.100111722946167 2.005617618560791 1.3203175067901611 
H 3.0430033206939697 0.34763628244400024 -0.29756566882133484 
H -0.21872074902057648 -0.1317988634109497 -1.6010041236877441 
H 0.6385255455970764 2.0347049236297607 -1.6492464542388916 
H -0.47208741307258606 2.4308135509490967 -0.34718289971351624 
H -3.00449800491333 -2.4436187744140625 -0.7322448492050171 
H -2.4022929668426514 -1.511145830154419 -2.1530983448028564 
H -3.1046721935272217 -0.6953752636909485 -0.6278457045555115 
O -1.4414052963256836 0.589919924736023 0.837822675704956 
H -1.5496050119400024 -0.2524673640727997 1.2837855815887451 
