22

N 1.2636888027191162 0.1980854868888855 -1.3597770929336548 
C 0.09351496398448944 0.7580168843269348 -0.9269881844520569 
C 0.24385173618793488 2.153028726577759 -0.24248239398002625 
O -0.8137134313583374 0.9255247712135315 -2.0758635997772217 
C -0.7506492137908936 -0.24806350469589233 -0.056967396289110184 
N -2.0234293937683105 0.2584754228591919 0.21904492378234863 
O 0.7781781554222107 -1.8010894060134888 0.308027446269989 
C 0.4823291301727295 -2.8044605255126953 1.210404872894287 
H 1.7752617597579956 -0.17533403635025024 -0.55198734998703 
H 1.8387751579284668 0.8387937545776367 -1.9234529733657837 
H 0.5513267517089844 2.9200406074523926 -0.9797411561012268 
H 1.0418586730957031 2.071573495864868 0.5454685688018799 
H -0.6751139760017395 2.507645606994629 0.24880662560462952 
H -0.4229954183101654 1.6552386283874512 -2.6066982746124268 
H -0.9268358945846558 -1.207488775253296 -0.606209397315979 
H -2.395540475845337 0.9430994391441345 -0.3394196927547455 
H -2.350564479827881 0.04349727928638458 1.1524641513824463 
H -0.1834660917520523 -3.5386857986450195 0.8200981020927429 
H 1.4287058115005493 -3.241837739944458 1.5855416059494019 
H -0.009461604058742523 -2.3266067504882812 2.1713383197784424 
O 0.07461289316415787 0.1712055206298828 1.7021827697753906 
H 0.9796666502952576 -0.10065945982933044 1.7062100172042847 
