22

N 1.7556159496307373 0.34922075271606445 0.3732673227787018 
C 0.5270209312438965 0.976294994354248 0.40890130400657654 
C 0.3556878864765167 2.0298712253570557 -0.7131317853927612 
O 0.3730274438858032 1.6171998977661133 1.727145791053772 
C -0.6425875425338745 -0.07825179398059845 0.4925530254840851 
N -1.8504674434661865 0.5742193460464478 0.7198335528373718 
O 0.5113552212715149 -1.9309049844741821 -0.09301698952913284 
C -0.23991213738918304 -3.1000640392303467 -0.17336076498031616 
H 2.555485486984253 0.9962575435638428 0.35851889848709106 
H 1.7790162563323975 -0.34473296999931335 -0.369644433259964 
H 0.6912013292312622 1.5706336498260498 -1.6891039609909058 
H -0.6740421652793884 2.3595447540283203 -0.8807661533355713 
H 0.9932878017425537 2.928133726119995 -0.5102902054786682 
H 0.9851830005645752 2.368924379348755 1.7196500301361084 
H -0.4993762969970703 -0.8481543064117432 1.2711313962936401 
H -1.9289064407348633 0.9583568572998047 1.6386892795562744 
H -2.306950092315674 0.9447227716445923 -0.07295595109462738 
H -1.170053482055664 -2.8851492404937744 -0.8706485629081726 
H 0.30966484546661377 -3.827893018722534 -0.7959822416305542 
H -0.5376908779144287 -3.4780657291412354 0.7751490473747253 
O -0.8750653862953186 -0.38497087359428406 -1.463531732559204 
H -0.11149504035711288 -0.795193076133728 -1.8524068593978882 
