22

N -1.6809754371643066 -0.7151061296463013 0.6560021638870239 
C -0.7968124747276306 0.21467475593090057 -0.05979660525918007 
C -1.6264715194702148 0.9154673218727112 -1.2047693729400635 
O -0.3370525538921356 1.1775867938995361 0.8460008502006531 
C 0.4291549623012543 -0.5751740336418152 -0.5854752659797668 
N 0.13689090311527252 -1.2324731349945068 -1.8273323774337769 
O 2.0971744060516357 -0.036032624542713165 0.7003620266914368 
C 2.0647966861724854 -0.4560845196247101 1.9927161931991577 
H -2.621941328048706 -0.47596123814582825 0.6710394024848938 
H -1.211341381072998 -1.0456973314285278 1.4855893850326538 
H -2.414820432662964 1.5640692710876465 -0.7415335178375244 
H -0.9356522560119629 1.5358188152313232 -1.8202844858169556 
H -2.145476818084717 0.15468990802764893 -1.8267308473587036 
H -1.0678107738494873 1.8389390707015991 1.0125981569290161 
H 0.6254372000694275 -1.4368962049484253 0.1201329231262207 
H 0.8966487050056458 -1.8670142889022827 -2.1023850440979004 
H -0.07047489285469055 -0.6027010679244995 -2.577767848968506 
H 2.7016348838806152 0.1597895622253418 2.59067702293396 
H 2.427504539489746 -1.5009163618087769 2.068378210067749 
H 0.9758018255233765 -0.41817373037338257 2.4234273433685303 
O 1.3916511535644531 1.0563441514968872 -1.214192509651184 
H 1.1621348857879639 1.744850516319275 -0.606655478477478 
