22

N -0.7051310539245605 0.949273943901062 -1.7080707550048828 
C -0.4567691385746002 0.9545791149139404 -0.30764147639274597 
C -1.5747158527374268 1.7535094022750854 0.4431686997413635 
O 0.7391432523727417 1.5934504270553589 -0.17169804871082306 
C -0.40518638491630554 -0.5191156268119812 0.27446791529655457 
N -1.646904706954956 -1.1414201259613037 0.17526832222938538 
O 1.9417078495025635 -0.34304648637771606 0.5449256300926208 
C 2.5188217163085938 -1.5472708940505981 0.8877648115158081 
H -0.885673999786377 0.09958148002624512 -2.196049928665161 
H -1.0204379558563232 1.8346174955368042 -2.0921430587768555 
H -1.369128704071045 1.799089789390564 1.5351555347442627 
H -2.5907037258148193 1.3245956897735596 0.2617844045162201 
H -1.6182658672332764 2.777452230453491 0.05464685708284378 
H 1.0557005405426025 1.3867814540863037 0.7651267647743225 
H -0.036349181085824966 -0.6458128690719604 1.2779279947280884 
H -2.2752583026885986 -0.9210302829742432 -0.5510462522506714 
H -1.7008981704711914 -2.0262835025787354 0.6704830527305603 
H 2.874253511428833 -1.4734247922897339 1.8891009092330933 
H 3.4049580097198486 -1.672385811805725 0.2079191952943802 
H 1.874814510345459 -2.4222419261932373 0.768005907535553 
O 0.6305052638053894 -1.2331290245056152 -1.3098033666610718 
H 1.2455179691314697 -0.5277706384658813 -1.4192930459976196 
