22

N -0.1546923816204071 -1.2660824060440063 1.4621449708938599 
C -0.36042988300323486 -1.1891212463378906 0.07700560241937637 
C -1.8388943672180176 -1.202481746673584 -0.3992330729961395 
O 0.3242968022823334 -2.2993361949920654 -0.5774416923522949 
C 0.4631611406803131 0.03628065437078476 -0.5048869848251343 
N 0.436829149723053 0.015444786287844181 -1.9132575988769531 
O 1.1966490745544434 1.9645763635635376 -0.4563453793525696 
C 1.8533411026000977 2.3760695457458496 0.7539904117584229 
H -0.6345475316047668 -2.0660130977630615 1.8906795978546143 
H -0.4174785017967224 -0.38048189878463745 1.8985142707824707 
H -1.9703583717346191 -0.9862082004547119 -1.4631460905075073 
H -2.3165502548217773 -2.180591583251953 -0.1677839457988739 
H -2.3767194747924805 -0.39787667989730835 0.17547331750392914 
H -0.09165079146623611 -3.1102492809295654 -0.23149308562278748 
H 1.4893666505813599 -0.07193589955568314 -0.040542129427194595 
H 0.1080884039402008 -0.763784646987915 -2.3714425563812256 
H 0.26720404624938965 0.9582425355911255 -2.292370319366455 
H 2.785255193710327 1.9184283018112183 0.9756516218185425 
H 1.8630495071411133 3.4761035442352295 0.7965118288993835 
H 1.1374304294586182 2.0943949222564697 1.6200422048568726 
O -0.8399734497070312 1.2303903102874756 0.7405624985694885 
H -0.9233764410018921 1.8442319631576538 0.027366697788238525 
