22

N -1.6928898096084595 -1.2247129678726196 1.2692298889160156 
C -0.5032363533973694 -0.9775797128677368 0.38507339358329773 
C -0.7464331984519958 -1.4483078718185425 -1.0244337320327759 
O 0.5746824145317078 -1.6854755878448486 0.9981786608695984 
C -0.1551176756620407 0.5517763495445251 0.5008444786071777 
N -0.26682379841804504 0.9580379724502563 1.8438310623168945 
O 0.6183216571807861 0.9690907001495361 -1.566826343536377 
C 1.2192493677139282 2.2450480461120605 -1.6046733856201172 
H -1.8346421718597412 -2.200784683227539 1.455541729927063 
H -2.5247185230255127 -0.760064959526062 0.8702454566955566 
H -1.6261805295944214 -0.9159578084945679 -1.4454511404037476 
H -0.9812005758285522 -2.524167776107788 -1.0408862829208374 
H 0.1611790508031845 -1.2755341529846191 -1.609314203262329 
H 0.3613024652004242 -2.6414601802825928 0.975371241569519 
H -0.8891485929489136 1.1504994630813599 -0.10438039898872375 
H 0.16005048155784607 1.8572384119033813 1.9753806591033936 
H 0.0367124043405056 0.20460528135299683 2.4681544303894043 
H 0.5221832990646362 3.0522334575653076 -1.6738483905792236 
H 1.829528570175171 2.371901750564575 -0.6147451996803284 
H 1.9764827489852905 2.2447452545166016 -2.384488821029663 
O 1.7776997089385986 0.3594120740890503 0.4850377142429352 
H 1.9829989671707153 -0.31054285168647766 -0.15784093737602234 
