22

N -2.271841049194336 0.6709970831871033 -0.7849969863891602 
C -0.9715439677238464 -0.03667125105857849 -0.7245122194290161 
C -1.2196941375732422 -1.5456409454345703 -0.8243579864501953 
O -0.2841204106807709 0.43940311670303345 -1.8083932399749756 
C -0.20476506650447845 0.39675214886665344 0.5870497226715088 
N -1.07637619972229 0.4211742579936981 1.6857569217681885 
O 1.9026689529418945 0.5267906785011292 -0.5683109164237976 
C 2.8782026767730713 0.997218668460846 0.2796573340892792 
H -2.1820180416107178 1.649189829826355 -0.7067363262176514 
H -3.078291177749634 0.1332484781742096 -0.5729449391365051 
H -1.812370777130127 -1.7729895114898682 -1.7226003408432007 
H -1.7851998805999756 -1.9017431735992432 0.0704236701130867 
H -0.2778396010398865 -2.1244916915893555 -0.8347572684288025 
H 0.6215036511421204 0.06568002700805664 -1.7436401844024658 
H 0.3917875587940216 1.3149453401565552 0.539999783039093 
H -0.5243260264396667 0.4066864550113678 2.5533995628356934 
H -1.9484174251556396 -0.010301097296178341 1.6159762144088745 
H 3.857008218765259 0.6980443000793457 -0.20132766664028168 
H 2.901071786880493 0.32963621616363525 1.2455514669418335 
H 2.7900912761688232 2.006103754043579 0.5205592513084412 
O 0.8174694776535034 -1.2426804304122925 1.0483325719833374 
H 1.477001667022705 -1.421352505683899 0.34587255120277405 
