22

N 0.3293360769748688 1.9838316440582275 0.0977216511964798 
C -0.38336971402168274 0.6952850818634033 0.2206949144601822 
C -1.9372690916061401 1.0203566551208496 0.2495618760585785 
O -0.01066158339381218 0.15667973458766937 1.4787344932556152 
C 0.013960707001388073 -0.3340913653373718 -0.8501130938529968 
N -0.6885353922843933 -0.08331281691789627 -2.082871198654175 
O 1.2132998704910278 -1.8639726638793945 0.16830073297023773 
C 2.3827123641967773 -1.4697260856628418 0.7241289615631104 
H -0.07716452330350876 2.6084163188934326 -0.5740339756011963 
H 1.3029694557189941 1.8313169479370117 0.13458743691444397 
H -2.527561902999878 0.09131694585084915 0.2836085855960846 
H -2.146162986755371 1.6948692798614502 1.1233199834823608 
H -2.2080917358398438 1.6342189311981201 -0.6474613547325134 
H -0.4891570806503296 0.6606109142303467 2.1835646629333496 
H 1.087636947631836 -0.21864427626132965 -1.1201883554458618 
H -1.6796294450759888 -0.22454547882080078 -2.0244638919830322 
H -0.30026501417160034 -0.6747304797172546 -2.837002754211426 
H 2.375305652618408 -0.3400341868400574 1.0405125617980957 
H 2.545846939086914 -2.0237202644348145 1.6609253883361816 
H 3.236342430114746 -1.632389783859253 0.03759254515171051 
O -1.0827383995056152 -1.823920488357544 -0.09860841929912567 
H -0.9568029046058655 -1.6878139972686768 0.8314892053604126 
