22

N 0.3535991609096527 2.132232666015625 -1.2137483358383179 
C -0.2935084402561188 1.1038377285003662 -0.371446430683136 
C -1.746041178703308 0.900580883026123 -0.8856750130653381 
O -0.26652050018310547 1.6069607734680176 0.8883323669433594 
C 0.5760708451271057 -0.202243372797966 -0.41205739974975586 
N 0.9475200176239014 -0.5189459323883057 -1.7397639751434326 
O 0.3353964388370514 -0.5946057438850403 1.89203679561615 
C 1.1078366041183472 -1.62772798538208 2.3617029190063477 
H 1.2833757400512695 2.319775104522705 -0.9400782585144043 
H -0.03264196962118149 2.324772596359253 -2.0850095748901367 
H -2.2986884117126465 0.18262812495231628 -0.23743943870067596 
H -2.26122784614563 1.8766112327575684 -0.8959720134735107 
H -1.7434418201446533 0.49861276149749756 -1.8947149515151978 
H -0.6499568223953247 0.9056622385978699 1.4772953987121582 
H 1.431886911392212 -0.28516995906829834 0.22658661007881165 
H 1.1280157566070557 -1.5361992120742798 -1.8113389015197754 
H 0.5157431960105896 -0.06926915049552917 -2.4784607887268066 
H 0.8349001407623291 -2.5931270122528076 1.7684849500656128 
H 0.6926586031913757 -1.814799427986145 3.4042255878448486 
H 2.12888765335083 -1.4475903511047363 2.345533609390259 
O -0.816257894039154 -1.6329054832458496 -0.14259900152683258 
H -1.2276062965393066 -1.5290918350219727 0.7441077828407288 
