22

N -0.24501773715019226 -1.5570398569107056 0.9228836297988892 
C 0.7473815679550171 -0.6173871159553528 0.673579216003418 
C 1.0824209451675415 0.29035684466362 1.8641133308410645 
O 1.9458760023117065 -1.3544461727142334 0.2416929304599762 
C 0.43874773383140564 0.1750548630952835 -0.6613569259643555 
N 1.5428520441055298 0.9845806360244751 -0.9817091226577759 
O -1.712415337562561 -0.4637586772441864 -0.9434438943862915 
C -2.3686161041259766 0.15024612843990326 -2.006852149963379 
H -1.15949547290802 -1.1237847805023193 0.9259450435638428 
H -0.061781592667102814 -2.102870464324951 1.793940782546997 
H 0.09709849208593369 0.6834171414375305 2.3102073669433594 
H 1.6609808206558228 1.1869932413101196 1.625931739807129 
H 1.6192172765731812 -0.2557962238788605 2.6561739444732666 
H 2.2546095848083496 -1.8236746788024902 1.0333186388015747 
H 0.22092704474925995 -0.4549884796142578 -1.5362231731414795 
H 2.3772411346435547 0.47906428575515747 -1.2011245489120483 
H 1.5411326885223389 1.8931012153625488 -0.5706115961074829 
H -3.437734842300415 -0.05024942383170128 -1.9265007972717285 
H -2.311528444290161 1.313420295715332 -1.8580042123794556 
H -1.9756420850753784 -0.15221188962459564 -2.9583728313446045 
O -0.7322391271591187 1.587546706199646 0.10653143376111984 
H -1.524013876914978 1.2124260663986206 0.48988276720046997 
