22

N -1.151837706565857 -1.094841480255127 -1.8101568222045898 
C -0.957164466381073 -0.17953461408615112 -0.6332813501358032 
C -1.6279793977737427 -0.7120980620384216 0.6147934198379517 
O -1.5119447708129883 1.0832500457763672 -1.0090887546539307 
C 0.5843847990036011 0.04131855070590973 -0.506645679473877 
N 1.1164096593856812 0.5530263185501099 -1.7092409133911133 
O 0.9229451417922974 -0.20352329313755035 1.7373793125152588 
C 2.267786979675293 0.17551210522651672 2.0367627143859863 
H -2.137239694595337 -1.1203117370605469 -2.081444025039673 
H -0.7684524059295654 -2.0187652111053467 -1.5976948738098145 
H -2.72151780128479 -0.7873212695121765 0.4647458791732788 
H -1.4254508018493652 -0.05762172490358353 1.4508023262023926 
H -1.2570762634277344 -1.752795696258545 0.7868401408195496 
H -2.487825393676758 0.9750899076461792 -1.120779037475586 
H 1.1439024209976196 -0.8736097812652588 -0.21573354303836823 
H 1.019040584564209 -0.09538562595844269 -2.4669604301452637 
H 0.6763473153114319 1.451289415359497 -1.9015700817108154 
H 2.51816987991333 1.1164097785949707 1.416344165802002 
H 2.9487860202789307 -0.6200441122055054 1.874541997909546 
H 2.2778055667877197 0.571681797504425 3.0696208477020264 
O 0.5008119940757751 1.7980446815490723 0.37673938274383545 
H 0.07009771466255188 1.750229835510254 1.2240252494812012 
