22

N -1.6583069562911987 -0.21113666892051697 -0.8088120818138123 
C -0.22196796536445618 -0.43203821778297424 -0.5984814763069153 
C 0.37237414717674255 -0.7432908415794373 -2.052713632583618 
O 0.08048472553491592 -1.4825451374053955 0.2714413106441498 
C 0.2997412383556366 0.8762403726577759 -0.019975824281573296 
N 0.16733834147453308 1.88312828540802 -0.9828546047210693 
O -1.0560698509216309 0.6231236457824707 1.8116645812988281 
C -0.19476920366287231 0.12418977916240692 2.851691961288452 
H -2.051487445831299 -0.026676973327994347 0.10040245950222015 
H -2.12970232963562 -0.9445623159408569 -1.3279619216918945 
H -0.008098547346889973 -1.7456308603286743 -2.410285711288452 
H 0.03819339722394943 0.04320965334773064 -2.7970128059387207 
H 1.479033350944519 -0.7816656827926636 -2.0027501583099365 
H -0.21043160557746887 -2.3333640098571777 -0.22860874235630035 
H 0.7099451422691345 1.1171361207962036 0.8566005229949951 
H -0.712990939617157 1.9229987859725952 -1.435031533241272 
H 0.5058472752571106 2.8162293434143066 -0.5994399189949036 
H -0.7677672505378723 -0.36690640449523926 3.636451482772827 
H 0.39273664355278015 0.9328153729438782 3.25480580329895 
H 0.42683541774749756 -0.724329948425293 2.3779428005218506 
O 2.256870985031128 0.21372827887535095 -0.025566570460796356 
H 2.2821919918060303 -0.7606528997421265 0.12849362194538116 
