22

N -1.22212815284729 0.46143028140068054 1.198731780052185 
C -0.27611663937568665 -0.5271847248077393 0.9267893433570862 
C -0.8089652061462402 -1.9911669492721558 1.0004216432571411 
O 0.7149714231491089 -0.3987291753292084 1.966076135635376 
C 0.4744875431060791 -0.26407739520072937 -0.4278683364391327 
N 1.5229791402816772 -1.1804648637771606 -0.6074535846710205 
O -0.49147868156433105 1.659340500831604 -0.986458957195282 
C -0.08441900461912155 2.039933681488037 -2.266716957092285 
H -1.8279780149459839 0.2806335687637329 2.003679037094116 
H -1.6987078189849854 0.757105827331543 0.35785120725631714 
H -0.05098293721675873 -2.7463741302490234 0.7647244334220886 
H -1.6565998792648315 -2.091438055038452 0.2950757145881653 
H -1.199729084968567 -2.1743521690368652 2.0230824947357178 
H 0.23995982110500336 -0.42760246992111206 2.83699631690979 
H -0.25985899567604065 -0.4277874231338501 -1.2782968282699585 
H 1.924721598625183 -1.5348259210586548 0.24841146171092987 
H 2.2149391174316406 -0.7830379009246826 -1.2611057758331299 
H 1.0523838996887207 1.8841791152954102 -2.3588809967041016 
H -0.5836303234100342 1.473273515701294 -3.0425314903259277 
H -0.2519350051879883 3.1087114810943604 -2.3491456508636475 
O 1.4912580251693726 1.2437505722045898 0.23210445046424866 
H 0.7768300771713257 1.6386827230453491 0.7245153784751892 
