22

N 1.0338486433029175 -1.916821837425232 1.1063716411590576 
C 0.3410107493400574 -1.1013247966766357 0.04341559857130051 
C -1.0421383380889893 -1.6089268922805786 -0.26437070965766907 
O 1.207574486732483 -1.1792967319488525 -1.0918396711349487 
C 0.3711031973361969 0.39256390929222107 0.5396243333816528 
N 1.6119794845581055 0.6483042240142822 1.1624109745025635 
O -1.4828438758850098 1.2035154104232788 -0.43508270382881165 
C -1.4965258836746216 2.596473455429077 -0.3697763681411743 
H 0.46068018674850464 -1.973758578300476 1.9398707151412964 
H 1.3124635219573975 -2.8225057125091553 0.7574833035469055 
H -0.9953368902206421 -2.6580471992492676 -0.6022959351539612 
H -1.6379706859588623 -1.608400821685791 0.6690658330917358 
H -1.4717553853988647 -0.9995794296264648 -1.05174720287323 
H 1.251391053199768 -2.1079776287078857 -1.3803632259368896 
H -0.44093430042266846 0.5663357973098755 1.2877265214920044 
H 1.7874857187271118 1.6340874433517456 1.2144256830215454 
H 2.3480324745178223 0.06972381472587585 0.7745846509933472 
H -1.8774276971817017 3.008780002593994 0.5257815718650818 
H -1.9687803983688354 2.9880430698394775 -1.2875632047653198 
H -0.3876439034938812 2.966564178466797 -0.5120044350624084 
O 0.8229129910469055 1.1619949340820312 -1.1998018026351929 
H 0.2528740465641022 0.740252673625946 -1.8259155750274658 
