22

N -1.042214035987854 -1.0098986625671387 2.018611431121826 
C -0.8987430930137634 -0.4487488865852356 0.6559701561927795 
C -1.528605580329895 -1.462286353111267 -0.34399938583374023 
O -1.5775039196014404 0.7332532405853271 0.6940737366676331 
C 0.6100126504898071 -0.15444396436214447 0.34941715002059937 
N 1.4316612482070923 -1.2274876832962036 0.7769752740859985 
O 0.08487094193696976 1.889475703239441 -0.715828001499176 
C 1.2810752391815186 2.587873935699463 -1.0054585933685303 
H -0.5769249796867371 -0.4528701901435852 2.704347848892212 
H -1.192161202430725 -1.9685791730880737 2.099017381668091 
H -2.580874443054199 -1.6360704898834229 -0.0726408138871193 
H -1.0004193782806396 -2.42332124710083 -0.3055393397808075 
H -1.4755882024765015 -1.0898529291152954 -1.3881440162658691 
H -1.4800400733947754 1.1348910331726074 -0.21392187476158142 
H 1.0241692066192627 0.7789010405540466 0.7375321388244629 
H 2.310094118118286 -1.2181246280670166 0.22504960000514984 
H 1.0232758522033691 -2.0784757137298584 1.0074902772903442 
H 0.9700719118118286 3.292724847793579 -1.8409135341644287 
H 2.0175669193267822 1.895100712776184 -1.515279769897461 
H 1.6513594388961792 3.0742366313934326 -0.1704944670200348 
O 0.7381112575531006 -0.44980543851852417 -1.6203958988189697 
H 0.21080483496189117 0.23350800573825836 -2.075869560241699 
