22

N 2.091348171234131 1.033700704574585 -0.5626606941223145 
C 1.123409390449524 -0.08801096677780151 -0.3491266369819641 
C 0.5866098403930664 -0.6574990749359131 -1.6396538019180298 
O 1.8043365478515625 -1.0906720161437988 0.3991517424583435 
C 0.013720773160457611 0.4876455068588257 0.6091702580451965 
N 0.6070491671562195 0.9290772676467896 1.8133652210235596 
O -1.9106239080429077 -0.12500324845314026 -0.43411487340927124 
C -3.029578924179077 0.18263182044029236 0.3787378668785095 
H 1.6338130235671997 1.7513587474822998 -1.1567305326461792 
H 2.9288365840911865 0.6926955580711365 -1.0530555248260498 
H 0.16392487287521362 0.16744424402713776 -2.2472877502441406 
H -0.1590564101934433 -1.4421623945236206 -1.4325644969940186 
H 1.3875905275344849 -1.1096352338790894 -2.251457691192627 
H 2.56571888923645 -1.417319416999817 -0.13141034543514252 
H -0.5749738812446594 1.311238408088684 0.17410555481910706 
H 1.2508448362350464 1.6910712718963623 1.669495701789856 
H 1.0371534824371338 0.12380913645029068 2.2665674686431885 
H -2.8393208980560303 -0.28049996495246887 1.4255422353744507 
H -3.204854726791382 1.2337309122085571 0.47753745317459106 
H -3.893399477005005 -0.3709382116794586 0.018084032461047173 
O -0.5993329286575317 -1.2229220867156982 1.3382611274719238 
H -0.9832134246826172 -1.7997405529022217 0.6880439519882202 
