22

N -0.2424880713224411 -0.39086657762527466 -2.4362576007843018 
C 0.13174274563789368 -0.6159296631813049 -1.0181218385696411 
C -0.363753080368042 -2.033339023590088 -0.6058046221733093 
O 1.4858533143997192 -0.5345540642738342 -0.9980658292770386 
C -0.47062045335769653 0.5289226770401001 -0.1401599943637848 
N -1.8292962312698364 0.7332028746604919 -0.44976332783699036 
O 1.5216929912567139 0.7743865251541138 1.1183935403823853 
C 1.4165074825286865 1.8389626741409302 1.9895384311676025 
H -0.012107140384614468 0.5250440835952759 -2.743474245071411 
H -0.9362279772758484 -0.9593018889427185 -2.824033737182617 
H -1.4427188634872437 -2.112032651901245 -0.6922866702079773 
H 0.09120078384876251 -2.78574800491333 -1.2778675556182861 
H -0.08179102092981339 -2.269965887069702 0.4413648545742035 
H 1.7682607173919678 -0.598301112651825 -0.05783139541745186 
H 0.0562785342335701 1.4771664142608643 -0.08615248650312424 
H -2.3238930702209473 1.1525222063064575 0.3567681908607483 
H -2.285489320755005 0.1835797131061554 -1.081950306892395 
H 0.4307482838630676 1.7497540712356567 2.576101541519165 
H 2.187337875366211 1.6231157779693604 2.7947638034820557 
H 1.5226922035217285 2.7764217853546143 1.518132209777832 
O -0.7484452128410339 -0.39560866355895996 1.630502462387085 
H 0.12451590597629547 -0.6674314141273499 1.9862043857574463 
