22

N -0.8343823552131653 -0.4360356032848358 1.6827329397201538 
C -0.9003069996833801 -0.7807194590568542 0.3577920198440552 
C -0.3279913663864136 -2.1512608528137207 -0.007334686815738678 
O -2.351665496826172 -0.7817420959472656 0.02893158048391342 
C -0.32661470770835876 0.4117303490638733 -0.5284841656684875 
N -0.6967018246650696 0.25523728132247925 -1.8545078039169312 
O 0.8564250469207764 1.5217591524124146 0.9872509837150574 
C 1.6392014026641846 2.5699963569641113 0.47539326548576355 
H -1.2804629802703857 -1.1317805051803589 2.298755168914795 
H 0.1111328974366188 -0.18987880647182465 1.925389051437378 
H 0.7205386161804199 -2.227616786956787 0.4169453978538513 
H -0.2529211640357971 -2.3426451683044434 -1.085702896118164 
H -0.9442485570907593 -2.970419406890869 0.43798768520355225 
H -2.538914680480957 -1.4628021717071533 -0.6427994966506958 
H -0.7813918590545654 1.4053117036819458 -0.21705037355422974 
H -1.1286762952804565 -0.5361848473548889 -2.1848270893096924 
H -0.18655505776405334 0.8756365776062012 -2.476809024810791 
H 2.439246892929077 2.791538715362549 1.1934733390808105 
H 1.0898798704147339 3.4341020584106445 0.18107227981090546 
H 2.217824697494507 2.192392349243164 -0.4645337164402008 
O 1.5434650182724 -0.24339094758033752 -0.6982650756835938 
H 1.933118462562561 -0.20322750508785248 0.17459094524383545 
