22

N 1.7245219945907593 -0.18636007606983185 0.3467477262020111 
C 0.8380820751190186 0.5246902108192444 -0.48251229524612427 
C 1.0307776927947998 2.0640921592712402 -0.5002337098121643 
O 1.1314181089401245 0.033774107694625854 -1.8095500469207764 
C -0.668523371219635 0.14078502357006073 -0.20121537148952484 
N -1.5171217918395996 0.7062941789627075 -1.1704013347625732 
O -0.34755566716194153 -1.367168664932251 1.367173194885254 
C -1.543294072151184 -1.764141321182251 1.97978675365448 
H 2.6930553913116455 0.16583234071731567 0.28647178411483765 
H 1.3570880889892578 -0.22975529730319977 1.2986093759536743 
H 0.2770257890224457 2.5831024646759033 -1.10826575756073 
H 2.031456470489502 2.297034502029419 -0.9191584587097168 
H 0.9843466281890869 2.4432578086853027 0.5246651768684387 
H 2.098206043243408 0.15925642848014832 -1.9769643545150757 
H -0.9556379914283752 0.577494204044342 0.7949747443199158 
H -2.3845672607421875 0.1637861579656601 -1.2189357280731201 
H -1.0842419862747192 0.8903087377548218 -2.0600762367248535 
H -2.132453441619873 -0.9266275763511658 2.354160785675049 
H -2.134676694869995 -2.3757050037384033 1.237167477607727 
H -1.2644637823104858 -2.426527500152588 2.8005287647247314 
O -0.4942769408226013 -1.650959849357605 -0.9501380920410156 
H 0.36083588004112244 -1.822462797164917 -0.5928341746330261 
