22

N -1.605033040046692 0.6085034012794495 -0.6081545352935791 
C -0.8199855089187622 0.6543633341789246 0.5261714458465576 
C -1.3731718063354492 -0.19964346289634705 1.7056390047073364 
O -0.6997724771499634 2.051997184753418 0.9553536176681519 
C 0.6866191625595093 0.34262821078300476 0.19696049392223358 
N 1.475235104560852 0.543779194355011 1.324818730354309 
O 0.46732649207115173 -0.40468695759773254 -1.8918431997299194 
C 1.6374704837799072 -0.7995549440383911 -2.549386739730835 
H -1.4781001806259155 -0.27125808596611023 -1.0987634658813477 
H -2.6041269302368164 0.8403977751731873 -0.4119011163711548 
H -0.6528149247169495 -0.4193911552429199 2.4944074153900146 
H -1.7106997966766357 -1.1971945762634277 1.2835359573364258 
H -2.274925470352173 0.2915681004524231 2.1513779163360596 
H -1.5760526657104492 2.317511796951294 1.2640620470046997 
H 1.123292088508606 0.9804798364639282 -0.5939105749130249 
H 1.4955203533172607 1.4773666858673096 1.6590449810028076 
H 1.5446361303329468 -0.25304168462753296 1.9383176565170288 
H 1.3938041925430298 -1.0932567119598389 -3.5579302310943604 
H 2.021392583847046 -1.7707873582839966 -2.0328898429870605 
H 2.43159818649292 -0.07180463522672653 -2.5114972591400146 
O 0.5582236647605896 -1.6572548151016235 0.21276156604290009 
H -0.04043589532375336 -1.9707210063934326 -0.45617416501045227 
