22

N 0.08735927939414978 2.254936933517456 -0.8106326460838318 
C 0.2782478630542755 1.1257402896881104 0.16075575351715088 
C 1.7155886888504028 0.6866474151611328 0.29452580213546753 
O -0.23921197652816772 1.5890270471572876 1.414572834968567 
C -0.7150596976280212 0.010098540224134922 -0.3283919095993042 
N -2.036797046661377 0.5007168650627136 -0.3354245722293854 
O 0.6267222762107849 -1.8460205793380737 -0.2959553003311157 
C -0.14177778363227844 -3.010115623474121 -0.5267322659492493 
H 0.5399906635284424 1.9960259199142456 -1.70489501953125 
H 0.49266886711120605 3.122861385345459 -0.4611327350139618 
H 2.0950660705566406 0.4246733486652374 -0.7000539302825928 
H 1.7660861015319824 -0.15584388375282288 1.011068344116211 
H 2.3463547229766846 1.5023550987243652 0.6879723072052002 
H 0.3375561237335205 2.3312227725982666 1.7237788438796997 
H -0.4622292220592499 -0.40671151876449585 -1.3160690069198608 
H -2.276031732559204 0.8329004645347595 0.5990077257156372 
H -2.1925251483917236 1.202539324760437 -1.0340276956558228 
H 0.3694070875644684 -3.871756076812744 -0.0719403624534607 
H -0.4200778901576996 -3.143801212310791 -1.5473153591156006 
H -1.1024574041366577 -2.940023422241211 0.150947704911232 
O -0.9331704378128052 -0.9169599413871765 1.3782942295074463 
H -0.13570988178253174 -1.2885140180587769 1.7116467952728271 
