22

N 1.7581778764724731 1.111207365989685 1.3501348495483398 
C 0.5248768329620361 0.37364014983177185 1.0032492876052856 
C 0.4445732831954956 -0.8923438787460327 1.9033209085464478 
O -0.4856795370578766 1.2539628744125366 1.2886238098144531 
C 0.5150543451309204 0.062169838696718216 -0.5334868431091309 
N 1.775167465209961 -0.42789217829704285 -0.934432864189148 
O -1.7920916080474854 0.6876153945922852 -0.7325876951217651 
C -2.1795547008514404 0.6032541394233704 -2.0605356693267822 
H 2.41323184967041 0.6680639386177063 1.9076131582260132 
H 1.9141745567321777 1.8901244401931763 0.7434872388839722 
H -0.48311832547187805 -1.4675555229187012 1.7057019472122192 
H 1.2888349294662476 -1.5623805522918701 1.6893210411071777 
H 0.5007883906364441 -0.5925629138946533 2.9696385860443115 
H -1.32564377784729 0.8006689548492432 1.036062479019165 
H 0.15715889632701874 0.800720751285553 -1.2229704856872559 
H 1.6428182125091553 -0.9702726006507874 -1.8219542503356934 
H 2.394162654876709 -0.7604515552520752 -0.2629906237125397 
H -1.9140082597732544 -0.441197007894516 -2.4761874675750732 
H -1.8017258644104004 1.3748944997787476 -2.659834146499634 
H -3.3157858848571777 0.5733010768890381 -2.0242433547973633 
O -0.5578144788742065 -1.6316269636154175 -0.5848101377487183 
H -1.473597526550293 -1.4533400535583496 -0.28312137722969055 
