22

N -0.01080188900232315 -1.0731289386749268 -2.232006072998047 
C -0.2256716638803482 -0.06514205038547516 -1.1899323463439941 
C -1.7060285806655884 0.40197598934173584 -1.2431267499923706 
O 0.6234709024429321 0.9560731053352356 -1.475602149963379 
C 0.1678364872932434 -0.6857002377510071 0.22043994069099426 
N -0.3509034812450409 -1.968104362487793 0.35774824023246765 
O 1.312590479850769 1.2687205076217651 0.8829962015151978 
C 1.9033052921295166 1.1297810077667236 2.1296024322509766 
H 0.8601685166358948 -1.520858645439148 -2.179367780685425 
H -0.8048112988471985 -1.4236960411071777 -2.692150115966797 
H -1.9193471670150757 0.8373828530311584 -2.2277228832244873 
H -2.384406089782715 -0.44725799560546875 -1.0729351043701172 
H -1.92839777469635 1.1576135158538818 -0.45979517698287964 
H 0.549136757850647 1.606057047843933 -0.7302893996238708 
H 1.2455891370773315 -0.6862936615943909 0.45811349153518677 
H -0.985294759273529 -2.3059146404266357 -0.2888331711292267 
H -0.4548127353191376 -2.1946699619293213 1.3640471696853638 
H 2.0461838245391846 2.165846109390259 2.529331922531128 
H 2.7974634170532227 0.5704200267791748 2.079054355621338 
H 1.1392391920089722 0.6827859282493591 2.859971761703491 
O -1.0544291734695435 0.31509944796562195 1.4602084159851074 
H -0.8200792074203491 1.2790113687515259 1.450246810913086 
