22

N -1.846396803855896 0.9033257365226746 -0.8357439637184143 
C -0.7434619069099426 -0.030054407194256783 -1.005002737045288 
C -1.0533753633499146 -1.4405471086502075 -0.5835970640182495 
O -0.36248621344566345 0.06716439872980118 -2.394670009613037 
C 0.5352845191955566 0.5713576078414917 -0.2705467939376831 
N 0.7181116938591003 1.9033676385879517 -0.6940903067588806 
O 1.0904821157455444 -1.1374776363372803 1.2442264556884766 
C 2.137599229812622 -0.7104063034057617 2.079535722732544 
H -2.6880033016204834 0.6236339211463928 -1.3912088871002197 
H -2.0400919914245605 1.0578230619430542 0.15256087481975555 
H -1.4267311096191406 -1.4404001235961914 0.4525053799152374 
H -1.8471338748931885 -1.8656115531921387 -1.2293620109558105 
H -0.1531137377023697 -2.0581607818603516 -0.7196329832077026 
H -1.0383946895599365 -0.3670315742492676 -2.920750617980957 
H 1.4650609493255615 0.01266682893037796 -0.4015471339225769 
H 0.8918446898460388 1.9520244598388672 -1.6864707469940186 
H 0.016785593703389168 2.520423173904419 -0.2952801287174225 
H 3.0653395652770996 -0.5182191729545593 1.525426983833313 
H 2.2370893955230713 -1.4071238040924072 2.9030961990356445 
H 1.834893822669983 0.2943463623523712 2.6012141704559326 
O -0.3489486575126648 0.9357219934463501 1.468484878540039 
H -0.44435420632362366 0.1331774890422821 2.0008530616760254 
