22

N 1.340421438217163 0.1207132562994957 -1.3248172998428345 
C 0.3936591148376465 0.9008710384368896 -0.6899623870849609 
C 0.9526969194412231 1.88941490650177 0.3510303497314453 
O -0.3022553324699402 1.6791561841964722 -1.7318512201309204 
C -0.8039330244064331 0.015026943758130074 -0.14859585464000702 
N -1.8629875183105469 0.8221368193626404 0.2602803111076355 
O 0.21243003010749817 -1.9525114297866821 -0.16575399041175842 
C -0.5169821381568909 -2.989471673965454 0.4196174442768097 
H 2.1164581775665283 0.6643491387367249 -1.73838210105896 
H 1.6660516262054443 -0.5937530398368835 -0.6670244336128235 
H 1.6463416814804077 1.314569115638733 1.0587506294250488 
H 1.5459980964660645 2.6953647136688232 -0.1263115108013153 
H 0.2052147537469864 2.347879409790039 1.0001517534255981 
H 0.2677597999572754 2.4358632564544678 -1.9400103092193604 
H -1.1696807146072388 -0.6666707396507263 -0.96243816614151 
H -2.452486276626587 0.3614203631877899 0.9390817284584045 
H -1.8509018421173096 1.7698508501052856 0.09120234102010727 
H 0.21803916990756989 -3.6983072757720947 0.9021766185760498 
H -1.1795998811721802 -3.4610061645507812 -0.23454385995864868 
H -1.0624796152114868 -2.574065685272217 1.3741888999938965 
O -0.09737410396337509 -0.2865283489227295 1.7005454301834106 
H 0.733609676361084 -0.7943007349967957 1.632665991783142 
