22

N -0.6072112917900085 2.075406551361084 0.9098671674728394 
C -0.2873283922672272 1.0665099620819092 -0.1783636063337326 
C -1.2561217546463013 1.2678076028823853 -1.3394429683685303 
O 0.9528862237930298 1.279656171798706 -0.668788492679596 
C -0.3726896345615387 -0.3489910662174225 0.5143813490867615 
N -1.6971092224121094 -0.5201428532600403 1.0068799257278442 
O 1.8373174667358398 -0.8354858756065369 -0.04895201697945595 
C 2.2418155670166016 -2.087965726852417 0.2320118397474289 
H -1.3022716045379639 2.7138760089874268 0.7254749536514282 
H 0.18445076048374176 2.2881765365600586 1.4910504817962646 
H -1.126287579536438 2.255462646484375 -1.79812490940094 
H -1.2028707265853882 0.4718339443206787 -2.0788984298706055 
H -2.324342966079712 1.2715122699737549 -0.9189362525939941 
H 1.5968904495239258 1.0154391527175903 0.03787955269217491 
H 0.3352859318256378 -0.6309462785720825 1.272225022315979 
H -2.0183167457580566 0.2503640353679657 1.5553257465362549 
H -1.7698485851287842 -1.4806057214736938 1.3910670280456543 
H 2.2712926864624023 -2.357205867767334 1.2581855058670044 
H 3.20688796043396 -2.2253549098968506 -0.3358350098133087 
H 1.528243064880371 -2.823497772216797 -0.3131038546562195 
O -0.48938876390457153 -1.4450280666351318 -1.1096954345703125 
H 0.29871758818626404 -1.200820803642273 -1.6042072772979736 
