22

N -1.6509649753570557 -0.6865863800048828 -0.3832354247570038 
C -0.3284875154495239 -0.8911954760551453 -0.7183500528335571 
C 0.25939881801605225 -2.176578998565674 -0.05853017419576645 
O -0.2272229790687561 -0.9643108248710632 -2.1721251010894775 
C 0.5328226089477539 0.40649381279945374 -0.4320412874221802 
N 1.8255414962768555 0.21517133712768555 -0.9188002943992615 
O -0.9645639061927795 1.5720956325531006 0.7661948800086975 
C -0.538569986820221 2.7985990047454834 1.249427318572998 
H -1.7354176044464111 -0.335367351770401 0.5695261359214783 
H -2.266768455505371 -1.4800809621810913 -0.6010031700134277 
H -0.21032986044883728 -3.084829807281494 -0.493689626455307 
H 1.337501049041748 -2.2886159420013428 -0.19731321930885315 
H 0.07589767873287201 -2.129047393798828 1.054546594619751 
H -0.539718747138977 -1.8562833070755005 -2.403872489929199 
H 0.12559589743614197 1.3127601146697998 -0.9123254418373108 
H 1.9751428365707397 0.4280298948287964 -1.864500880241394 
H 2.421518325805664 -0.35982611775398254 -0.37349238991737366 
H 0.507868766784668 2.6377880573272705 1.7677096128463745 
H -0.49148303270339966 3.547667980194092 0.5201854705810547 
H -1.1680585145950317 3.0777626037597656 2.1230733394622803 
O 0.9328069090843201 0.10825981199741364 1.4777872562408447 
H 0.1274907886981964 0.1480945348739624 2.000828266143799 
