22

N 1.2361801862716675 1.3318545818328857 -0.5415278077125549 
C 0.49677956104278564 0.9935345649719238 0.5784451365470886 
C -0.730550229549408 1.9216880798339844 0.8074256777763367 
O 1.388883113861084 1.088352084159851 1.720175862312317 
C 0.09434247016906738 -0.5437723398208618 0.5180912017822266 
N -0.5549736022949219 -0.8800258636474609 1.7284502983093262 
O 0.7106081247329712 -1.0065821409225464 -1.5703063011169434 
C 0.3958697021007538 -2.308295249938965 -2.005333662033081 
H 1.5645157098770142 2.304749011993408 -0.5074525475502014 
H 0.7568152546882629 1.0793545246124268 -1.3776284456253052 
H -1.4566431045532227 1.8079262971878052 -0.02645084634423256 
H -1.2459911108016968 1.7285176515579224 1.7549251317977905 
H -0.38336294889450073 2.983055830001831 0.9130777716636658 
H 0.87840735912323 1.3806072473526 2.491244316101074 
H 0.9892727136611938 -1.1767832040786743 0.49458515644073486 
H -0.642696738243103 -1.8910950422286987 1.8456450700759888 
H -1.4367605447769165 -0.41699883341789246 1.8642231225967407 
H 1.2585855722427368 -2.9010777473449707 -2.0534636974334717 
H -0.44225412607192993 -2.773491144180298 -1.3992923498153687 
H -0.12482895702123642 -2.234596014022827 -3.0167396068573 
O -1.5029867887496948 -0.4150416851043701 -0.6865527033805847 
H -1.249211311340332 -0.07187942415475845 -1.5315409898757935 
