22

N -1.8195432424545288 0.18680530786514282 -0.1553005427122116 
C -0.7815593481063843 0.15923042595386505 0.7725516557693481 
C -1.145126461982727 -0.7487574219703674 1.9959931373596191 
O -0.48432499170303345 1.480292797088623 1.2868355512619019 
C 0.5779117941856384 -0.33854788541793823 0.1241452619433403 
N 1.5557705163955688 -0.5049194693565369 1.1299328804016113 
O -0.04096241667866707 -0.1673596352338791 -2.010122776031494 
C 1.0710117816925049 -0.4260009229183197 -2.8383491039276123 
H -2.6901309490203857 0.5781721472740173 0.2449604570865631 
H -1.4854793548583984 0.6032670736312866 -0.9948652386665344 
H -0.3922789990901947 -0.666609525680542 2.815294027328491 
H -1.1947859525680542 -1.8116945028305054 1.6991952657699585 
H -2.1041884422302246 -0.41991159319877625 2.4169135093688965 
H -1.3360493183135986 1.871604323387146 1.629279375076294 
H 0.42526161670684814 -1.366001009941101 -0.3014911115169525 
H 2.4617722034454346 -0.7065596580505371 0.7087303400039673 
H 1.5319080352783203 0.21024590730667114 1.851542353630066 
H 1.016294002532959 0.24532736837863922 -3.6934165954589844 
H 2.04911470413208 -0.07439225912094116 -2.302522659301758 
H 1.1487194299697876 -1.4408634901046753 -3.1045234203338623 
O 1.1725635528564453 1.4018425941467285 -0.5974215269088745 
H 0.464102178812027 1.934829592704773 -0.6773597002029419 
