22

N 1.5267913341522217 -0.3855037987232208 -1.059226155281067 
C 0.3410109877586365 0.34310585260391235 -0.6070343255996704 
C -0.2745349109172821 0.9973248243331909 -1.9490232467651367 
O 0.52982097864151 1.356616735458374 0.33686497807502747 
C -0.594089925289154 -0.7072545289993286 -0.0241721048951149 
N -0.9846903085708618 -1.6030908823013306 -1.013317346572876 
O 0.9295976161956787 -1.093045949935913 1.6628706455230713 
C 0.3950934112071991 -0.4083203971385956 2.8081417083740234 
H 1.8946559429168701 -0.8550472855567932 -0.2344576120376587 
H 2.194462537765503 0.18062761425971985 -1.5591319799423218 
H -1.2490395307540894 1.4545261859893799 -1.732273817062378 
H 0.43163546919822693 1.8349792957305908 -2.289881706237793 
H -0.35367661714553833 0.244209423661232 -2.7806806564331055 
H 1.1290796995162964 2.037163734436035 -0.16347017884254456 
H -0.9662278294563293 -0.8834747672080994 0.896730899810791 
H -1.626091480255127 -2.3624517917633057 -0.6540915369987488 
H -0.26255062222480774 -1.8812568187713623 -1.6677716970443726 
H 1.2022348642349243 -0.011039582081139088 3.4385550022125244 
H -0.29820603132247925 -1.0153728723526 3.343564748764038 
H -0.11589258164167404 0.584250807762146 2.447603702545166 
O -2.115081787109375 0.6560555100440979 0.28846532106399536 
H -1.7343006134033203 1.5169981718063354 0.5117350220680237 
