22

N -1.941715121269226 0.6458720564842224 1.2355477809906006 
C -1.0450998544692993 -0.2928461730480194 0.4815385043621063 
C -0.28597545623779297 -1.2375518083572388 1.3734796047210693 
O -1.8827475309371948 -1.00111985206604 -0.4397052526473999 
C -0.1398414671421051 0.6425104141235352 -0.41000786423683167 
N -0.9563072323799133 1.382478952407837 -1.2788329124450684 
O 1.9585164785385132 -0.08549228310585022 0.07591421902179718 
C 2.9062891006469727 0.5527907609939575 -0.7521992325782776 
H -1.3629591464996338 1.1564406156539917 1.9364659786224365 
H -2.6789469718933105 0.11368165910243988 1.7176398038864136 
H 0.2417692393064499 -0.6477410197257996 2.1384758949279785 
H -0.9689727425575256 -1.9195436239242554 1.9097949266433716 
H 0.3818848431110382 -1.8682246208190918 0.7616512775421143 
H -2.51585054397583 -1.5416252613067627 0.09121602773666382 
H 0.48926785588264465 1.3431987762451172 0.18104813992977142 
H -1.4073272943496704 0.7720406651496887 -1.9325740337371826 
H -1.576900839805603 2.0123229026794434 -0.8054699897766113 
H 3.0828864574432373 1.5703620910644531 -0.49268072843551636 
H 2.520810127258301 0.4873778820037842 -1.8583236932754517 
H 3.8202452659606934 -0.06011555716395378 -0.7907060980796814 
O 0.3961007595062256 -0.6752744913101196 -1.7457594871520996 
H 0.9648748636245728 -1.3495419025421143 -1.3965122699737549 
