22

N -2.152208089828491 -0.8182202577590942 -0.9325810670852661 
C -1.1837669610977173 -0.19318406283855438 0.00017969410691875964 
C -1.7556724548339844 1.1648368835449219 0.45842424035072327 
O -1.1001869440078735 -1.085534930229187 1.0429928302764893 
C 0.22898350656032562 -0.09766151756048203 -0.6835160851478577 
N 0.10660962760448456 0.4263957738876343 -1.9864692687988281 
O 1.3520758152008057 -0.8175660967826843 1.2725766897201538 
C 2.7087268829345703 -1.0270713567733765 1.0180402994155884 
H -1.8296092748641968 -1.6865144968032837 -1.2942986488342285 
H -2.765188455581665 -0.21088112890720367 -1.4011144638061523 
H -1.872733473777771 1.8481523990631104 -0.3900148570537567 
H -2.73840069770813 1.017215371131897 0.9310073256492615 
H -1.058303713798523 1.6697920560836792 1.1798851490020752 
H -0.424725741147995 -0.7163717746734619 1.6529934406280518 
H 0.8557856678962708 -0.978680431842804 -0.7000515460968018 
H 0.9942203760147095 0.8388106226921082 -2.29020357131958 
H -0.7444673776626587 0.8654966950416565 -2.2460834980010986 
H 3.1836702823638916 -1.0792827606201172 2.0308828353881836 
H 2.8957533836364746 -1.8774560689926147 0.4219951033592224 
H 3.1448678970336914 -0.06957022100687027 0.5470978617668152 
O 1.0165106058120728 1.5104612112045288 0.21015284955501556 
H 1.1380589008331299 1.3168340921401978 1.1581041812896729 
