22

N -1.5763404369354248 1.0641885995864868 -0.33415481448173523 
C -1.1171255111694336 0.05186419188976288 0.5087704062461853 
C -1.6871877908706665 -1.3438321352005005 0.23443153500556946 
O -1.5414098501205444 0.4690062403678894 1.8670313358306885 
C 0.45709964632987976 0.10606471449136734 0.5780425071716309 
N 0.9003075361251831 -0.634223222732544 1.690766453742981 
O 0.8971077799797058 1.2540102005004883 -1.2883938550949097 
C 2.272698402404785 1.410967469215393 -1.5121358633041382 
H -2.599942684173584 1.1489384174346924 -0.2986532151699066 
H -1.163514494895935 0.9290430545806885 -1.2503589391708374 
H -1.187393307685852 -2.1506381034851074 0.753758430480957 
H -2.765481472015381 -1.387007713317871 0.4713748097419739 
H -1.5638483762741089 -1.5707494020462036 -0.8794588446617126 
H -1.7649774551391602 -0.2977047860622406 2.397724151611328 
H 0.870580792427063 1.1161330938339233 0.7502776980400085 
H 0.3006529211997986 -1.239581823348999 2.1657395362854004 
H 1.8971861600875854 -0.9056954383850098 1.5646389722824097 
H 2.751833915710449 2.10141658782959 -0.8971322774887085 
H 2.4253621101379395 1.6022454500198364 -2.5948989391326904 
H 2.782233476638794 0.36274319887161255 -1.3838218450546265 
O 0.8517546653747559 -1.234017252922058 -0.8513203859329224 
H 0.5604037642478943 -0.8531709313392639 -1.6922260522842407 
