22

N -1.1814271211624146 -0.8415929675102234 1.1148098707199097 
C 0.1576240360736847 -0.8452680110931396 0.8218458890914917 
C 0.6154951453208923 -2.1000306606292725 0.024845249950885773 
O 0.874251127243042 -0.7344202399253845 2.089850902557373 
C 0.5874307751655579 0.5275627970695496 0.14558391273021698 
N 1.9879424571990967 0.5488529205322266 0.0013625611318275332 
O -1.4215381145477295 1.371037483215332 -0.31858164072036743 
C -1.4587081670761108 2.58585524559021 -1.0151166915893555 
H -1.7312451601028442 -0.6420459151268005 0.27274826169013977 
H -1.5145564079284668 -1.7069544792175293 1.5723602771759033 
H 0.5199092626571655 -3.015231132507324 0.637925922870636 
H -0.007546445354819298 -2.1917612552642822 -0.8972126841545105 
H 1.6788922548294067 -2.039411783218384 -0.2811213433742523 
H 0.9563997983932495 -1.63900625705719 2.4396870136260986 
H 0.30054372549057007 1.4120333194732666 0.7180072665214539 
H 2.338294744491577 0.08694573491811752 -0.8086957335472107 
H 2.4820942878723145 0.6158547401428223 0.8635574579238892 
H -2.505434989929199 2.876729726791382 -1.1278778314590454 
H -1.112389326095581 2.390277862548828 -2.103999614715576 
H -0.8614829778671265 3.3574306964874268 -0.5696666240692139 
O 0.11953865736722946 0.06124395504593849 -1.7524049282073975 
H -0.8240875601768494 -0.07810040563344955 -1.827907919883728 
