22

N 1.9643653631210327 -1.3983176946640015 -0.6013107895851135 
C 1.079836130142212 -0.5099295377731323 0.17585568130016327 
C 0.9379330277442932 -1.1074860095977783 1.6116182804107666 
O 1.721664309501648 0.7053170204162598 0.21100682020187378 
C -0.28811338543891907 -0.3306569755077362 -0.5658320784568787 
N -0.7966764569282532 -1.5704525709152222 -0.9655659198760986 
O -0.3601745665073395 2.0072872638702393 -0.20248545706272125 
C -1.4740434885025024 2.582183361053467 -0.7842212915420532 
H 2.105451822280884 -2.3072268962860107 -0.26843389868736267 
H 1.998615026473999 -1.1471422910690308 -1.5739197731018066 
H 1.9539111852645874 -1.217901349067688 2.0394809246063232 
H 0.3033134639263153 -0.47842177748680115 2.2495553493499756 
H 0.4665818512439728 -2.095055103302002 1.5651359558105469 
H 1.1028255224227905 1.3187355995178223 0.672261655330658 
H -0.32532820105552673 0.38042840361595154 -1.3959057331085205 
H -1.7916055917739868 -1.5233632326126099 -1.163750171661377 
H -0.3211999833583832 -2.3872249126434326 -0.7911683917045593 
H -1.3930822610855103 2.6621861457824707 -1.8355462551116943 
H -2.417030096054077 1.9983839988708496 -0.5090711712837219 
H -1.608796238899231 3.5709099769592285 -0.24372896552085876 
O -1.54567551612854 0.0024275255855172873 0.9629382491111755 
H -1.3127720355987549 0.8453197479248047 1.4130873680114746 
