22

N 0.5368361473083496 -0.40991663932800293 1.7404987812042236 
C 0.14931264519691467 -1.0450849533081055 0.5806416273117065 
C 1.3239206075668335 -1.7114923000335693 -0.18625570833683014 
O -0.8573387265205383 -2.043092727661133 0.936613142490387 
C -0.7233089804649353 -0.08960511535406113 -0.34507185220718384 
N -1.2324796915054321 -0.8185412287712097 -1.4219105243682861 
O -0.2754237949848175 1.865181803703308 0.6109916567802429 
C -0.7982069253921509 3.00508189201355 -0.006799556314945221 
H 0.9775438904762268 0.4798794984817505 1.5328764915466309 
H 1.0838929414749146 -1.0126479864120483 2.3661277294158936 
H 1.0866637229919434 -2.0882341861724854 -1.1714081764221191 
H 1.7479699850082397 -2.564931869506836 0.418963760137558 
H 2.1468403339385986 -0.9431871175765991 -0.3102051317691803 
H -0.3804415166378021 -2.8304872512817383 1.223397135734558 
H -1.5665010213851929 0.3547157645225525 0.23330731689929962 
H -0.6303503513336182 -1.0782619714736938 -2.1176156997680664 
H -2.1703526973724365 -1.1192458868026733 -1.3328813314437866 
H -1.8614693880081177 2.995129346847534 -0.13970297574996948 
H -0.3060588836669922 3.10310697555542 -1.0808422565460205 
H -0.4214704632759094 3.8913257122039795 0.5065610408782959 
O 0.8022621870040894 0.7832237482070923 -1.3240231275558472 
H 1.3681598901748657 1.2770845890045166 -0.7132626175880432 
