22

N 0.6666151285171509 1.8957350254058838 0.8557901978492737 
C -0.4462655484676361 1.1103709936141968 0.3383650481700897 
C -1.1876592636108398 0.3517470061779022 1.419784665107727 
O -1.300711750984192 2.0298802852630615 -0.37646374106407166 
C 0.10176099091768265 0.173277348279953 -0.814007580280304 
N 0.7663694024085999 0.9727705121040344 -1.7612640857696533 
O -0.3311043381690979 -1.9758844375610352 0.06842517852783203 
C 0.2234009951353073 -2.9479012489318848 -0.8184873461723328 
H 1.4052116870880127 1.3035770654678345 1.2285057306289673 
H 0.3608182370662689 2.6522369384765625 1.503017783164978 
H -1.7128039598464966 1.0486643314361572 2.092853546142578 
H -0.45577338337898254 -0.2047569751739502 2.0259182453155518 
H -1.9425973892211914 -0.3015386760234833 0.9560139179229736 
H -1.6809206008911133 2.6350929737091064 0.27727261185646057 
H -0.6289452910423279 -0.47642040252685547 -1.3001668453216553 
H 0.12786178290843964 1.5379194021224976 -2.2908244132995605 
H 1.5850290060043335 1.4186851978302002 -1.377846360206604 
H -0.3578323721885681 -3.024153709411621 -1.7121243476867676 
H 0.295735239982605 -3.889558792114258 -0.24397657811641693 
H 1.325484275817871 -2.690335750579834 -1.0234482288360596 
O 1.7056164741516113 -0.48432832956314087 0.13540706038475037 
H 1.4807111024856567 -1.1350784301757812 0.8172556757926941 
