22

N -0.3861132562160492 -1.400478482246399 -1.1325305700302124 
C 0.3013387620449066 -0.18765272200107574 -1.1370304822921753 
C 1.833913803100586 -0.3353179693222046 -1.1294080018997192 
O -0.14625316858291626 0.5629492998123169 -2.3156635761260986 
C -0.2605007290840149 0.7708060145378113 0.004725765436887741 
N 0.2786354422569275 2.0365498065948486 -0.16805578768253326 
O -1.3870203495025635 -0.7526729106903076 1.2235428094863892 
C -1.9724663496017456 -0.26596948504447937 2.39914608001709 
H -0.3260917663574219 -1.819834589958191 -0.20002619922161102 
H -0.048685189336538315 -2.0352559089660645 -1.8791412115097046 
H 2.1321589946746826 -1.0468006134033203 -0.3128274083137512 
H 2.204319715499878 -0.7234529852867126 -2.091952323913574 
H 2.3633811473846436 0.6181408762931824 -0.924100935459137 
H 0.3079405426979065 0.1431688666343689 -3.0727274417877197 
H -1.3657623529434204 0.8477460145950317 -0.005863865837454796 
H 1.1825075149536133 2.174405336380005 0.24095572531223297 
H -0.05752788484096527 2.551175832748413 -0.9357271194458008 
H -2.4557623863220215 -1.0981663465499878 2.8983535766601562 
H -2.67337965965271 0.5470446944236755 2.2352097034454346 
H -1.1440234184265137 0.10035188496112823 3.106513261795044 
O 0.9158238768577576 0.11965334415435791 1.4969642162322998 
H 0.7035660147666931 -0.8063902258872986 1.6996434926986694 
