22

N 0.026990490034222603 -1.7584534883499146 0.7269737720489502 
C 0.27655208110809326 -1.1027467250823975 -0.45691731572151184 
C -0.8115920424461365 -1.3167200088500977 -1.540040135383606 
O 1.5665662288665771 -1.628536581993103 -0.9471009969711304 
C 0.6014424562454224 0.43115052580833435 -0.18520879745483398 
N 1.06345534324646 1.0268248319625854 -1.3651649951934814 
O -0.11953078955411911 0.6320077180862427 1.883222222328186 
C -0.14826849102973938 1.9203051328659058 2.4305319786071777 
H -0.6800046563148499 -1.2706234455108643 1.2564432621002197 
H -0.14224782586097717 -2.760094404220581 0.6218909025192261 
H -1.8087081909179688 -1.0716009140014648 -1.0964229106903076 
H -0.6664538383483887 -0.6850214004516602 -2.421694040298462 
H -0.8195856809616089 -2.3654024600982666 -1.8936556577682495 
H 1.476355791091919 -1.9284411668777466 -1.8673278093338013 
H 1.436339020729065 0.5402925610542297 0.5383413434028625 
H 0.9995833039283752 2.034268856048584 -1.3368031978607178 
H 1.421776294708252 0.49062052369117737 -2.0866215229034424 
H -0.677672266960144 2.6369237899780273 1.6853845119476318 
H -0.8302819728851318 1.9140666723251343 3.2960205078125 
H 0.8066387176513672 2.302499532699585 2.6948020458221436 
O -1.2371079921722412 1.1445192098617554 -0.3454228341579437 
H -1.7342458963394165 0.8141602277755737 0.40876927971839905 
