22

N -0.3226237893104553 -1.798413872718811 -0.060664817690849304 
C -0.9325388669967651 -0.6080560684204102 -0.38400042057037354 
C -2.1065545082092285 -0.22499267756938934 0.5439433455467224 
O -1.3901710510253906 -0.7173929810523987 -1.783881425857544 
C 0.1341162919998169 0.5605703592300415 -0.5645762085914612 
N -0.5154122710227966 1.7045825719833374 -1.039190649986267 
O 1.9217736721038818 -0.45060476660728455 0.24656261503696442 
C 3.0693867206573486 0.31143054366111755 0.39400386810302734 
H -0.9804489016532898 -2.5883848667144775 0.020652346312999725 
H 0.30292922258377075 -1.6867724657058716 0.7305116653442383 
H -2.442671060562134 0.8186537623405457 0.46869510412216187 
H -2.985842704772949 -0.8969982862472534 0.344733864068985 
H -1.7746602296829224 -0.39211857318878174 1.6066280603408813 
H -2.1752355098724365 -1.3003504276275635 -1.7435358762741089 
H 0.9266366362571716 0.34359216690063477 -1.3017830848693848 
H -0.9783735275268555 1.6247146129608154 -1.8946796655654907 
H -0.8309484124183655 2.3203959465026855 -0.2964913845062256 
H 3.8892502784729004 -0.19111616909503937 -0.05418986827135086 
H 3.272156238555908 0.4756581783294678 1.5146722793579102 
H 2.964569568634033 1.3571127653121948 0.04462936520576477 
O 0.28865930438041687 1.0465408563613892 1.3701376914978027 
H 0.6660029888153076 0.2919495701789856 1.837823510169983 
