22

N 0.418628066778183 2.022855758666992 0.37058550119400024 
C 0.7154043912887573 0.6499555110931396 0.5383785367012024 
C 2.260425567626953 0.45115014910697937 0.6278434991836548 
O 0.11500062048435211 0.27336442470550537 1.6996166706085205 
C 0.18652266263961792 -0.22827163338661194 -0.6886228322982788 
N 0.711094856262207 0.2642664611339569 -1.8927552700042725 
O -1.3946051597595215 -1.2637280225753784 0.7179631590843201 
C -2.3262970447540283 -2.043316125869751 0.11320169270038605 
H -0.22783352434635162 2.3375356197357178 -0.26491037011146545 
H 0.9150376915931702 2.658778429031372 0.9925247430801392 
H 2.7977511882781982 0.8354601263999939 -0.24756409227848053 
H 2.5194640159606934 -0.6404238939285278 0.7665645480155945 
H 2.6620373725891113 0.9884576797485352 1.503854513168335 
H 0.12655062973499298 -0.725411593914032 1.7388578653335571 
H 0.34335339069366455 -1.283241629600525 -0.5850789546966553 
H 1.0842663049697876 1.1663624048233032 -1.9619922637939453 
H 0.5111409425735474 -0.333003968000412 -2.6850476264953613 
H -2.9348838329315186 -1.4202576875686646 -0.6465327739715576 
H -3.0658178329467773 -2.3198394775390625 0.8837711811065674 
H -1.9173800945281982 -2.887296676635742 -0.4283688962459564 
O -1.629080891609192 0.6954503059387207 -0.7212098836898804 
H -1.8707802295684814 0.8011540770530701 0.16892048716545105 
