22

N 0.3509223461151123 1.2611329555511475 1.7973181009292603 
C 0.5548129677772522 -0.011249023489654064 1.1687544584274292 
C -0.40881773829460144 -1.0892822742462158 1.5684514045715332 
O 1.930513620376587 -0.284603089094162 1.6211317777633667 
C 0.6369808912277222 0.17700202763080597 -0.40487906336784363 
N 1.616771936416626 1.1492067575454712 -0.6827034950256348 
O -1.241294026374817 -0.9697145819664001 -1.1601881980895996 
C -1.4028470516204834 -0.6863168478012085 -2.561732053756714 
H -0.46677911281585693 1.7484521865844727 1.4414558410644531 
H 0.40487638115882874 1.210031270980835 2.830881118774414 
H -0.1546611338853836 -2.0194268226623535 1.034927248954773 
H -0.32565104961395264 -1.3236693143844604 2.63771653175354 
H -1.4305394887924194 -0.719674825668335 1.384597659111023 
H 2.0982134342193604 -1.2498059272766113 1.5040397644042969 
H 0.8371104598045349 -0.7864254713058472 -0.9270195960998535 
H 2.17085337638855 1.3979390859603882 0.08112373948097229 
H 1.8152111768722534 1.224892020225525 -1.6508903503417969 
H -0.7087123990058899 -1.1802088022232056 -3.177429676055908 
H -1.2870126962661743 0.47875723242759705 -2.715500831604004 
H -2.453052520751953 -0.8380046486854553 -2.820279359817505 
O -0.8490306735038757 1.4821113348007202 -0.5461422204971313 
H -1.6878682374954224 1.0288565158843994 -0.4236328899860382 
