22

N 1.0249143838882446 0.8276752233505249 1.296294927597046 
C -0.25143879652023315 0.8590466380119324 0.7880691289901733 
C -1.3393853902816772 0.253572940826416 1.6846923828125 
O -0.6076340079307556 2.2708537578582764 0.5298017263412476 
C -0.28413140773773193 0.314790278673172 -0.7109626531600952 
N -1.5283119678497314 0.5378147959709167 -1.2971851825714111 
O 1.7197884321212769 -0.6587280035018921 -0.7489122748374939 
C 2.0276408195495605 -1.3958922624588013 -1.8496280908584595 
H 1.0539652109146118 1.1658201217651367 2.2863214015960693 
H 1.4318194389343262 -0.08639315515756607 1.1685272455215454 
H -1.553674578666687 0.8905367255210876 2.5534474849700928 
H -2.2733006477355957 -0.01984112150967121 1.1751179695129395 
H -0.9300463795661926 -0.7567369937896729 2.0794057846069336 
H -0.6463868021965027 2.6981215476989746 1.3877404928207397 
H 0.4834271967411041 0.8343967795372009 -1.3451660871505737 
H -1.9420416355133057 -0.3180934190750122 -1.6888357400894165 
H -2.157923936843872 1.1756550073623657 -0.8700288534164429 
H 2.8268826007843018 -2.1000816822052 -1.6534627676010132 
H 2.196587085723877 -0.7916199564933777 -2.7416224479675293 
H 1.106730341911316 -2.1415534019470215 -2.0640721321105957 
O -0.5603066682815552 -1.621031403541565 -0.24599067866802216 
H 0.20282718539237976 -1.9383126497268677 0.2664482593536377 
