22

N -1.6679877042770386 0.6381606459617615 -0.7292751669883728 
C -0.24524472653865814 0.6695544123649597 -0.4226014018058777 
C 0.5085176229476929 1.6067185401916504 -1.4353469610214233 
O -0.09056388586759567 1.1773573160171509 0.8900653123855591 
C 0.31431281566619873 -0.7874493598937988 -0.4081242084503174 
N 0.6601676344871521 -1.1841527223587036 -1.7468279600143433 
O 0.5385196208953857 -1.2831813097000122 1.69425630569458 
C -0.5931254625320435 -1.4567466974258423 2.4272005558013916 
H -2.023163318634033 1.4607480764389038 -1.1484214067459106 
H -2.173429012298584 0.17805036902427673 0.0045193699188530445 
H 0.22264781594276428 1.3413350582122803 -2.4829556941986084 
H 1.5841412544250488 1.5567141771316528 -1.2764703035354614 
H 0.15497054159641266 2.6666676998138428 -1.2833372354507446 
H -0.2869304120540619 2.148949384689331 0.869300365447998 
H -0.5074203014373779 -1.490976095199585 -0.13646458089351654 
H 1.417218565940857 -0.6658410429954529 -2.1527321338653564 
H 0.8499548435211182 -2.194301128387451 -1.804753065109253 
H -1.49326491355896 -0.8400020599365234 2.0284054279327393 
H -0.3747899532318115 -1.0963141918182373 3.4408843517303467 
H -0.8248140811920166 -2.540701389312744 2.454925537109375 
O 2.087968587875366 -0.3103595972061157 0.3030117154121399 
H 1.9423147439956665 0.4057694971561432 0.9147403240203857 
