22

N -1.7494335174560547 0.6173945665359497 0.5798267722129822 
C -1.1705412864685059 -0.1409008949995041 -0.43233227729797363 
C -1.0698094367980957 0.6108985543251038 -1.7781596183776855 
O -2.049863338470459 -1.3057419061660767 -0.5983113050460815 
C 0.2017657458782196 -0.728583037853241 0.09126301109790802 
N 0.602277934551239 -1.7829173803329468 -0.7442576885223389 
O 0.6686882376670837 0.6393465399742126 1.7883225679397583 
C 1.9509902000427246 0.44991686940193176 2.3456099033355713 
H -1.1082420349121094 1.3170647621154785 0.9194292426109314 
H -2.68906831741333 0.9573556184768677 0.3388107717037201 
H -0.5680894255638123 1.611934781074524 -1.6089098453521729 
H -0.462343692779541 0.06868750602006912 -2.5179953575134277 
H -2.0717055797576904 0.783916175365448 -2.2126898765563965 
H -2.051072120666504 -1.5775103569030762 -1.5225199460983276 
H 0.08139826357364655 -1.1924641132354736 1.0924326181411743 
H 0.22326301038265228 -1.8972407579421997 -1.6248297691345215 
H 1.6152434349060059 -1.9638853073120117 -0.6012783646583557 
H 2.7187695503234863 0.3647604286670685 1.4835377931594849 
H 2.013279438018799 -0.3881089985370636 2.997060775756836 
H 2.271650552749634 1.4068963527679443 2.8093717098236084 
O 1.4386177062988281 0.6604983806610107 -0.6550158262252808 
H 1.204223394393921 1.488682746887207 -0.14936517179012299 
