22

N 0.835456132888794 1.0451610088348389 1.9647066593170166 
C 0.8385329842567444 0.6408230066299438 0.526168167591095 
C 1.8058536052703857 -0.46181878447532654 0.2063584327697754 
O 1.155283808708191 1.8288493156433105 -0.2154586911201477 
C -0.6646715998649597 0.3426361083984375 0.1702575832605362 
N -1.4478329420089722 1.5038920640945435 0.3530433773994446 
O -0.5551623702049255 -1.742291808128357 -0.7139833569526672 
C -1.845228910446167 -2.1146867275238037 -1.2100229263305664 
H 1.7531818151474 1.4294730424880981 2.2247421741485596 
H 0.6598562598228455 0.19545403122901917 2.533513307571411 
H 1.6251550912857056 -1.2843472957611084 0.8999355435371399 
H 2.8485372066497803 -0.12068475037813187 0.37394678592681885 
H 1.7184540033340454 -0.7620484828948975 -0.842481255531311 
H 2.024117946624756 2.1718835830688477 0.10311093181371689 
H -1.1136775016784668 -0.46405890583992004 0.8029806613922119 
H -1.4222633838653564 1.8483667373657227 1.293044090270996 
H -1.187943458557129 2.193578004837036 -0.3391304612159729 
H -1.7315846681594849 -3.0105502605438232 -1.7964073419570923 
H -2.178030490875244 -1.3119027614593506 -1.9662468433380127 
H -2.558694362640381 -2.253925323486328 -0.4184075593948364 
O -0.5161750912666321 0.512335479259491 -1.7642805576324463 
H -0.043163612484931946 -0.1861376315355301 -2.1853880882263184 
