22

N 1.0195322036743164 0.9367505311965942 1.1548994779586792 
C 0.8281458616256714 0.6888439059257507 -0.2142399102449417 
C 2.13493275642395 0.3239234983921051 -1.019410490989685 
O 0.3526289165019989 1.9454950094223022 -0.7538928389549255 
C -0.30707958340644836 -0.3532903492450714 -0.5036145448684692 
N -0.5661606192588806 -0.41841626167297363 -1.8736637830734253 
O -0.8820670247077942 -0.8377901315689087 1.583839774131775 
C -1.9910187721252441 -1.707821249961853 1.5814859867095947 
H 0.9333194494247437 0.08477114886045456 1.6763086318969727 
H 1.8684622049331665 1.4777517318725586 1.3661772012710571 
H 2.8418781757354736 1.173147201538086 -0.9354997873306274 
H 2.5983710289001465 -0.5422630310058594 -0.5297660231590271 
H 1.9367122650146484 0.09504915773868561 -2.0801784992218018 
H 0.9869173765182495 2.6508889198303223 -0.4862178564071655 
H 0.07345554232597351 -1.3804688453674316 -0.20185405015945435 
H -0.3927919864654541 0.42019906640052795 -2.3947746753692627 
H -1.4619094133377075 -0.8761287331581116 -2.054269790649414 
H -1.6973118782043457 -2.7217905521392822 1.418346881866455 
H -2.5229735374450684 -1.5755642652511597 2.5045571327209473 
H -2.7267775535583496 -1.363495945930481 0.7467122673988342 
O -1.7323752641677856 0.8302809000015259 0.11048944294452667 
H -1.2938885688781738 1.1499279737472534 0.9045655131340027 
