22

N -0.09763149917125702 0.8525335788726807 1.6278197765350342 
C -0.9150081276893616 0.4611622989177704 0.5838193297386169 
C -1.4133620262145996 1.6116796731948853 -0.3170289993286133 
O -2.0697872638702393 -0.2475738525390625 1.184049129486084 
C -0.2610539495944977 -0.732094407081604 -0.22925500571727753 
N -1.213942527770996 -1.2826534509658813 -1.0904700756072998 
O 1.8452744483947754 -0.5473124980926514 0.557761013507843 
C 2.763401985168457 -1.4069459438323975 -0.04578610509634018 
H -0.49991658329963684 1.5977840423583984 2.2133920192718506 
H 0.8263952136039734 1.0775138139724731 1.2822275161743164 
H -0.5319674015045166 2.249706745147705 -0.6025263071060181 
H -2.133793592453003 2.260779619216919 0.22442011535167694 
H -1.877091884613037 1.285616397857666 -1.2521820068359375 
H -2.630718946456909 0.4631592631340027 1.5517363548278809 
H 0.1305868923664093 -1.5667747259140015 0.37181147933006287 
H -1.297222375869751 -0.8551092147827148 -1.967414140701294 
H -1.9609463214874268 -1.7550413608551025 -0.6229677796363831 
H 2.7509968280792236 -2.37423038482666 0.3506682217121124 
H 2.5823590755462646 -1.3962969779968262 -1.2032732963562012 
H 3.7814950942993164 -0.8999450206756592 -0.014345379546284676 
O 0.7801675200462341 0.3385148346424103 -1.5303823947906494 
H 1.4417648315429688 0.8655276894569397 -1.072073221206665 
