22

N -1.6872104406356812 -0.609143078327179 -1.050199031829834 
C -1.0970624685287476 0.04058632254600525 0.06856139749288559 
C -1.9677348136901855 1.2474784851074219 0.5441802144050598 
O -1.0697534084320068 -0.914709210395813 1.0367743968963623 
C 0.3681487739086151 0.5703317523002625 -0.2716693580150604 
N 0.29746925830841064 1.5375868082046509 -1.289067029953003 
O 1.2779371738433838 -1.1556347608566284 1.0984022617340088 
C 2.6588916778564453 -1.1767714023590088 1.0360543727874756 
H -2.690765380859375 -0.7519544363021851 -0.9720088243484497 
H -1.215078353881836 -0.7167409658432007 -1.910050392150879 
H -2.9741110801696777 0.8893757462501526 0.780858039855957 
H -2.101806640625 2.008216619491577 -0.25815334916114807 
H -1.5145537853240967 1.6985876560211182 1.4690918922424316 
H -0.4544529616832733 -0.5790807604789734 1.7547669410705566 
H 0.9686686396598816 0.8992193937301636 0.5206230282783508 
H -0.4205426275730133 1.5019280910491943 -1.9773249626159668 
H 1.1358364820480347 2.088683605194092 -1.401970624923706 
H 2.9599995613098145 -2.0870087146759033 1.5958044528961182 
H 3.1239306926727295 -0.29958420991897583 1.4031074047088623 
H 2.9882090091705322 -1.3517537117004395 -0.03353932499885559 
O 0.884861946105957 -1.0718821287155151 -1.343238115310669 
H 0.5291197896003723 -1.76773202419281 -0.8010032773017883 
