22

N 1.3930938243865967 -0.6511825919151306 0.9972206354141235 
C 0.15336821973323822 -1.0602589845657349 0.5254886746406555 
C -0.9317538142204285 -1.1093326807022095 1.6340079307556152 
O 0.29681816697120667 -2.3691461086273193 -0.10450635105371475 
C -0.2699240446090698 -0.1829296052455902 -0.7386547923088074 
N -1.4083067178726196 -0.7592067122459412 -1.319800615310669 
O 1.2104823589324951 1.474483847618103 -0.5690479278564453 
C 1.0769752264022827 2.5078608989715576 -1.482895851135254 
H 1.440913438796997 0.34278354048728943 1.1203181743621826 
H 1.7238352298736572 -1.2220276594161987 1.796445369720459 
H -1.9625591039657593 -1.1274633407592773 1.2638932466506958 
H -0.766788125038147 -1.9903303384780884 2.2951836585998535 
H -0.8525007963180542 -0.17316026985645294 2.263706684112549 
H 0.47680339217185974 -2.9877426624298096 0.6325232982635498 
H 0.5252761244773865 -0.15877023339271545 -1.516219139099121 
H -2.259127616882324 -0.5217543840408325 -0.9246600270271301 
H -1.222939133644104 -1.5925840139389038 -1.835662603378296 
H 1.195603847503662 2.2102982997894287 -2.505899667739868 
H 0.019110307097434998 2.998568058013916 -1.333341360092163 
H 1.7843233346939087 3.299121618270874 -1.2196917533874512 
O -1.143512487411499 1.3041821718215942 0.250662237405777 
H -0.4791910946369171 1.7685914039611816 0.7709292769432068 
