22

N -0.339373916387558 1.6953363418579102 0.5970037579536438 
C -0.2545340955257416 0.9870671629905701 -0.5967190265655518 
C -1.6465767621994019 0.7359550595283508 -1.2511134147644043 
O 0.6146004796028137 1.730639100074768 -1.515270709991455 
C 0.6072161197662354 -0.3222979009151459 -0.4256818890571594 
N 0.7722338438034058 -0.9476649761199951 -1.6653927564620972 
O 0.741908073425293 -0.37325990200042725 1.8165816068649292 
C 1.4071452617645264 -1.4696736335754395 2.3649585247039795 
H -0.8618941307067871 2.5902175903320312 0.47918274998664856 
H -0.6151326298713684 1.0962504148483276 1.3550975322723389 
H -1.6340960264205933 0.009622755460441113 -2.063225507736206 
H -2.33817458152771 0.34219664335250854 -0.4606630206108093 
H -2.062152147293091 1.6904237270355225 -1.6619175672531128 
H 0.11146651208400726 2.5270602703094482 -1.7546770572662354 
H 1.6041244268417358 -0.1804405003786087 -5.13007071276661e-05 
H 1.3672956228256226 -0.4487086236476898 -2.2834863662719727 
H 0.037879928946495056 -1.5576895475387573 -1.9441498517990112 
H 1.5359114408493042 -1.3211688995361328 3.4272255897521973 
H 0.6792108416557312 -2.397395372390747 2.2759182453155518 
H 2.3359763622283936 -1.736019492149353 1.877623438835144 
O -0.864551305770874 -1.5079057216644287 0.29884669184684753 
H -1.1984838247299194 -1.1425445079803467 1.1299102306365967 
