22

N 1.7447601556777954 0.7371458411216736 0.10725373029708862 
C 0.9360402226448059 0.08770715445280075 -0.816215455532074 
C 1.3974701166152954 -1.3873279094696045 -1.0611252784729004 
O 1.0253015756607056 0.840724527835846 -2.067002534866333 
C -0.590050220489502 0.18178650736808777 -0.4045438766479492 
N -1.3414793014526367 -0.47875118255615234 -1.394749641418457 
O -0.40999871492385864 1.1425124406814575 1.5916231870651245 
C -1.61006760597229 1.3212332725524902 2.316981792449951 
H 1.5538005828857422 0.43884921073913574 1.0454515218734741 
H 2.7169060707092285 0.789536714553833 -0.19500011205673218 
H 2.452800989151001 -1.3974745273590088 -1.3949241638183594 
H 1.2571356296539307 -1.9769428968429565 -0.12000363320112228 
H 0.8619619011878967 -1.863492488861084 -1.8900010585784912 
H 0.8691954612731934 0.2079140841960907 -2.801692485809326 
H -0.927477240562439 1.2332383394241333 -0.41237109899520874 
H -1.205654501914978 -1.4885066747665405 -1.4100013971328735 
H -2.3000690937042236 -0.17133517563343048 -1.4839518070220947 
H -2.5232787132263184 1.1839128732681274 1.721689224243164 
H -1.6613963842391968 0.5440800189971924 3.1446259021759033 
H -1.603043556213379 2.292220115661621 2.7839794158935547 
O -0.6394373774528503 -1.2012267112731934 1.022498369216919 
H -0.0034199156798422337 -1.0358039140701294 1.7174797058105469 
