22

N 0.38933271169662476 0.5376787781715393 -1.74767005443573 
C 0.15956437587738037 0.6932063102722168 -0.29843640327453613 
C -0.5068027973175049 2.145904541015625 -0.16977126896381378 
O 1.2835795879364014 0.6134501099586487 0.5187416076660156 
C -0.7953777313232422 -0.4226275384426117 0.08024653047323227 
N -2.0247600078582764 -0.2292756289243698 -0.5628414154052734 
O 0.7082944512367249 -2.002352237701416 -0.5364832878112793 
C 1.2775553464889526 -2.471092700958252 0.6768701672554016 
H 0.9229596853256226 1.3078079223632812 -2.162489414215088 
H 0.8112624287605286 -0.3715305030345917 -1.8474156856536865 
H -1.359872817993164 2.290485382080078 -0.8824455738067627 
H 0.2932397723197937 2.9277451038360596 -0.4120393991470337 
H -0.8336991667747498 2.3157312870025635 0.8766291737556458 
H 1.8182463645935059 1.455954909324646 0.32434260845184326 
H -0.7178354263305664 -1.200390100479126 0.7110159993171692 
H -1.964192271232605 0.024318166077136993 -1.537354588508606 
H -2.7132880687713623 -0.9878851771354675 -0.38768377900123596 
H 0.5646344423294067 -3.0461997985839844 1.2458059787750244 
H 1.646442174911499 -1.5107444524765015 1.234405279159546 
H 2.177236795425415 -3.0486202239990234 0.5258896350860596 
O -1.0053502321243286 0.3019743859767914 2.041257858276367 
H -0.13116969168186188 0.6764607429504395 2.3094260692596436 
