22

N 1.3154269456863403 -1.059524416923523 0.5776100754737854 
C -0.011856182478368282 -1.081724762916565 0.17274390161037445 
C -0.3595777153968811 -2.161477565765381 -0.9206728935241699 
O -0.7898118495941162 -1.4420677423477173 1.354198932647705 
C -0.560792863368988 0.3239942193031311 -0.2762547731399536 
N -1.9341496229171753 0.2952398955821991 -0.49252748489379883 
O 1.296217679977417 1.4816919565200806 0.00825634878128767 
C 1.1096696853637695 2.843400478363037 -0.24917656183242798 
H 1.861804485321045 -0.4449547827243805 0.02033841609954834 
H 1.7051857709884644 -1.9951344728469849 0.7701360583305359 
H -0.11382248997688293 -3.1565067768096924 -0.5229088664054871 
H 0.27934029698371887 -1.974511742591858 -1.7993781566619873 
H -1.417816400527954 -2.147430181503296 -1.2347326278686523 
H -0.4145604968070984 -2.3190488815307617 1.6544939279556274 
H -0.0978892594575882 0.5877823233604431 -1.2782291173934937 
H -2.435386896133423 -0.4242459535598755 0.021839382126927376 
H -2.3397514820098877 1.2253695726394653 -0.4396478533744812 
H 1.1344611644744873 3.0947747230529785 -1.2637982368469238 
H 1.8552128076553345 3.375765800476074 0.36301684379577637 
H 0.08680106699466705 3.156116485595703 0.22381635010242462 
O -0.5093735456466675 1.0695929527282715 1.5282280445098877 
H 0.3406694531440735 0.752898633480072 1.7826485633850098 
