22

N 0.6598559617996216 1.175911545753479 1.2458598613739014 
C 0.2110818326473236 -0.12822845578193665 1.1540831327438354 
C -1.1892882585525513 -0.36007192730903625 1.796936273574829 
O 1.2101538181304932 -1.0002055168151855 1.7834957838058472 
C 0.29859381914138794 -0.6689744591712952 -0.33532682061195374 
N 0.01720637083053589 -2.0327963829040527 -0.35153815150260925 
O 0.680557906627655 1.2801507711410522 -1.3977545499801636 
C 0.710989773273468 1.2112733125686646 -2.7794535160064697 
H 0.6472453474998474 1.526930570602417 2.2226321697235107 
H 0.17471490800380707 1.7661933898925781 0.5853182077407837 
H -1.8691251277923584 0.47067004442214966 1.4559392929077148 
H -1.6600884199142456 -1.3048259019851685 1.5366384983062744 
H -1.1030458211898804 -0.30217739939689636 2.915555000305176 
H 1.110795021057129 -0.8432630300521851 2.7483513355255127 
H 1.2695010900497437 -0.5297143459320068 -0.8249825239181519 
H 0.7218660712242126 -2.6015429496765137 0.07510770857334137 
H -0.9386646151542664 -2.272092819213867 -0.38805457949638367 
H 0.7190612554550171 2.198882579803467 -3.207484006881714 
H -0.30489736795425415 0.7807044982910156 -3.14733624458313 
H 1.5360642671585083 0.5862017273902893 -3.1545755863189697 
O -1.4434361457824707 0.04231523349881172 -0.9836195707321167 
H -1.4591418504714966 1.0046590566635132 -0.9497907161712646 
