22

N -1.6200212240219116 -0.7726074457168579 -0.3149457573890686 
C -0.454511433839798 -0.4825500547885895 -0.987252950668335 
C -0.5745421648025513 0.6920756697654724 -1.9922558069229126 
O -0.016406415030360222 -1.7011523246765137 -1.6700185537338257 
C 0.7452844977378845 -0.3148201107978821 0.03767786920070648 
N 1.9481691122055054 -0.18120445311069489 -0.6831684112548828 
O -0.4320850968360901 -0.10212311148643494 1.9327489137649536 
C 0.2987229824066162 0.10090803354978561 3.09952974319458 
H -1.8030214309692383 -0.06108814477920532 0.3982577323913574 
H -2.4273383617401123 -0.9371069669723511 -0.938170850276947 
H 0.35779067873954773 1.0656914710998535 -2.371870517730713 
H -1.2138774394989014 0.3804996907711029 -2.8611245155334473 
H -1.0974633693695068 1.5564403533935547 -1.466912865638733 
H -0.6237968802452087 -1.8059065341949463 -2.414637565612793 
H 0.8557689785957336 -1.1332868337631226 0.7530394792556763 
H 2.1457560062408447 0.6964449882507324 -1.062860369682312 
H 2.297945261001587 -1.0548309087753296 -1.026355504989624 
H -0.35228273272514343 0.02240700274705887 3.945223808288574 
H 0.6750137209892273 1.2029125690460205 3.109679698944092 
H 1.1443485021591187 -0.5948770046234131 3.2043747901916504 
O 0.4954323172569275 1.6367299556732178 0.44002413749694824 
H -0.34888511896133423 1.787443995475769 0.8690180778503418 
