22

N 0.2747332751750946 -1.7740942239761353 0.42041122913360596 
C -0.6748874187469482 -0.954522967338562 -0.1686898171901703 
C -0.7643646001815796 -1.1137304306030273 -1.701565146446228 
O -1.963598608970642 -1.273814082145691 0.45528456568717957 
C -0.5027741193771362 0.553048849105835 0.2986495792865753 
N -1.6065709590911865 1.2890840768814087 -0.1511494219303131 
O 1.5540928840637207 0.40295979380607605 1.2166539430618286 
C 2.0707688331604004 1.6201527118682861 1.6828263998031616 
H 0.14683212339878082 -2.7686614990234375 0.15299804508686066 
H 1.2051209211349487 -1.3874393701553345 0.2862325608730316 
H -1.3936436176300049 -0.3695596158504486 -2.1857569217681885 
H 0.26871606707572937 -1.022526741027832 -2.13845157623291 
H -1.1713688373565674 -2.1250133514404297 -1.972376823425293 
H -2.280585765838623 -2.0834364891052246 0.031614307314157486 
H -0.43568968772888184 0.6789997816085815 1.3855019807815552 
H -1.5232387781143188 1.6489323377609253 -1.078905463218689 
H -2.462643623352051 1.0922807455062866 0.3118201792240143 
H 1.4880516529083252 2.058689832687378 2.4638731479644775 
H 2.1701059341430664 2.334278106689453 0.7598295211791992 
H 3.1080288887023926 1.4806969165802002 1.9826745986938477 
O 0.8387264013290405 1.1165813207626343 -1.0660032033920288 
H 1.6541882753372192 0.5970944762229919 -0.9854716658592224 
