22

N -0.7429866790771484 -2.330392837524414 -0.4590063691139221 
C -0.7158114314079285 -0.9662564396858215 0.12386372685432434 
C -0.8211460113525391 -1.1142244338989258 1.6647968292236328 
O -1.8081614971160889 -0.3346564471721649 -0.38833412528038025 
C 0.5916898250579834 -0.21924294531345367 -0.35691311955451965 
N 1.7098838090896606 -1.0440138578414917 -0.21170589327812195 
O -0.5818721055984497 1.819125771522522 -0.7595885992050171 
C 0.2812272310256958 2.748408794403076 -1.331453800201416 
H -0.43514880537986755 -3.066797971725464 0.12503677606582642 
H -0.6329377889633179 -2.3087244033813477 -1.4583994150161743 
H -0.8667731881141663 -0.12064066529273987 2.166199207305908 
H -1.7067373991012573 -1.7213833332061768 1.9019417762756348 
H 0.07542910426855087 -1.6253725290298462 2.084953546524048 
H -1.7510370016098022 0.5975532531738281 -0.06478989869356155 
H 0.5713460445404053 0.2659654915332794 -1.306325912475586 
H 2.5755817890167236 -0.4907683730125427 -0.25955989956855774 
H 1.6619136333465576 -1.8797721862792969 0.2782424986362457 
H 1.208832025527954 2.850024700164795 -0.6737016439437866 
H -0.2357594221830368 3.746983051300049 -1.2042618989944458 
H 0.5105471014976501 2.5218873023986816 -2.3413949012756348 
O 0.9256924390792847 1.0102287530899048 1.2045705318450928 
H 0.18622887134552002 1.6620689630508423 1.2658307552337646 
