22

N -1.7351672649383545 -0.5847566723823547 0.03888622298836708 
C -1.0201064348220825 0.5576167106628418 -0.23062898218631744 
C -1.1416938304901123 1.6367435455322266 0.8869197964668274 
O -1.4776759147644043 1.104463815689087 -1.5149577856063843 
C 0.4938477575778961 0.21731309592723846 -0.5906991958618164 
N 1.1302322149276733 1.3857653141021729 -1.018870234489441 
O 0.5321313142776489 -1.9158432483673096 0.06986512988805771 
C 1.7555408477783203 -2.5790863037109375 -0.0438094437122345 
H -1.2585420608520508 -1.1458262205123901 0.7475784420967102 
H -2.735804319381714 -0.41419029235839844 0.19418026506900787 
H -2.1987814903259277 1.9885801076889038 0.959570050239563 
H -0.8290406465530396 1.1842914819717407 1.860285997390747 
H -0.5392224192619324 2.5245847702026367 0.7095516324043274 
H -2.296509265899658 1.5982147455215454 -1.305176854133606 
H 0.5814062356948853 -0.5341923236846924 -1.3945844173431396 
H 1.3665499687194824 2.0355026721954346 -0.33882004022598267 
H 1.0006566047668457 1.6056798696517944 -1.9895731210708618 
H 2.1205246448516846 -2.6169309616088867 -1.066453456878662 
H 1.6257398128509521 -3.578788995742798 0.3876155912876129 
H 2.52563214302063 -2.0694615840911865 0.6540260910987854 
O 1.255257487297058 0.1591780036687851 1.2345786094665527 
H 0.845024049282074 -0.5588566064834595 1.7505162954330444 
