22

N 0.6484882831573486 0.49542391300201416 1.6377429962158203 
C 0.0831771269440651 1.060031533241272 0.5125433206558228 
C -1.3733493089675903 1.5442163944244385 0.7355167269706726 
O 0.9299886226654053 2.183422803878784 0.06474383175373077 
C 0.24650265276432037 0.12523937225341797 -0.7500619888305664 
N -0.2141704261302948 0.7997794151306152 -1.8872586488723755 
O 0.9520013928413391 -1.7397078275680542 0.2845001220703125 
C 1.1419847011566162 -2.8604869842529297 -0.5352465510368347 
H 0.5893425941467285 1.104347825050354 2.4646494388580322 
H 0.2828925848007202 -0.4333854913711548 1.7839879989624023 
H -1.394888997077942 2.4001197814941406 1.4494702816009521 
H -1.8858109712600708 1.8774961233139038 -0.17731334269046783 
H -1.9758825302124023 0.682164192199707 1.151096224784851 
H 0.8132403492927551 2.8812222480773926 0.7270234227180481 
H 1.2677103281021118 -0.2128799706697464 -0.9579675197601318 
H 0.41863009333610535 1.4887129068374634 -2.2311270236968994 
H -1.173896312713623 0.7959403991699219 -2.0498464107513428 
H 0.09160107374191284 -3.09460711479187 -1.035815954208374 
H 1.8974201679229736 -2.755518913269043 -1.2602413892745972 
H 1.2437121868133545 -3.7433297634124756 0.11912374943494797 
O -1.3438618183135986 -1.0466318130493164 -0.4224708080291748 
H -1.2448315620422363 -1.5515691041946411 0.37695184350013733 
