22

N -0.8218030333518982 1.1274354457855225 -1.1991363763809204 
C -0.5281202793121338 1.0520853996276855 0.14481499791145325 
C -1.7574514150619507 0.7675962448120117 1.0415184497833252 
O 0.10773131251335144 2.319237232208252 0.5717080235481262 
C 0.6808263063430786 0.06635171920061111 0.41159215569496155 
N 1.0650758743286133 0.18435268104076385 1.7460070848464966 
O 0.7169891595840454 -0.9474949240684509 -1.6134968996047974 
C 1.672060251235962 -1.9625372886657715 -1.7342181205749512 
H -1.5494459867477417 1.8164139986038208 -1.4162613153457642 
H -1.0066864490509033 0.19288338720798492 -1.5610744953155518 
H -2.5075340270996094 1.5919649600982666 0.9628494381904602 
H -2.2328038215637207 -0.1990436166524887 0.6822190880775452 
H -1.531921625137329 0.6434704065322876 2.093529224395752 
H -0.6454858779907227 2.955819606781006 0.6251057386398315 
H 1.5619639158248901 0.251112699508667 -0.22847259044647217 
H 0.5154318809509277 -0.26188090443611145 2.408203125 
H 1.7842997312545776 0.8189786672592163 1.9414432048797607 
H 1.5011703968048096 -2.7223405838012695 -0.8334953188896179 
H 2.6662471294403076 -1.6052194833755493 -1.7459642887115479 
H 1.413033127784729 -2.600144624710083 -2.5847456455230713 
O -0.3384152352809906 -1.6363993883132935 0.5644200444221497 
H -0.765160858631134 -1.8526426553726196 -0.27654576301574707 
