22

N -0.48173215985298157 -0.049523502588272095 1.715743899345398 
C 0.6302329897880554 -0.12137915194034576 0.8805842399597168 
C 1.7809032201766968 0.8645303845405579 1.2731753587722778 
O 1.1360268592834473 -1.4810845851898193 1.0500900745391846 
C 0.2754954695701599 -0.012037092819809914 -0.6409335136413574 
N 1.3933779001235962 -0.32436126470565796 -1.423475980758667 
O -1.8883602619171143 0.38785693049430847 -0.4388429522514343 
C -2.4778969287872314 0.523236095905304 -1.6886098384857178 
H -1.112275242805481 0.6696339845657349 1.4128632545471191 
H -0.254311740398407 -0.0394732803106308 2.7247800827026367 
H 2.62571120262146 0.8572515845298767 0.5636725425720215 
H 2.1694157123565674 0.5901358127593994 2.267411947250366 
H 1.377779245376587 1.8813363313674927 1.3150126934051514 
H 1.2324858903884888 -1.6225006580352783 2.034173011779785 
H 0.028980256989598274 1.061325192451477 -0.8916634917259216 
H 1.1398005485534668 -0.5156607627868652 -2.3938088417053223 
H 2.143021583557129 -0.7917807698249817 -1.012555480003357 
H -3.5315475463867188 0.2993426024913788 -1.5874989032745361 
H -2.2512593269348145 1.4254130125045776 -2.207598924636841 
H -2.0445680618286133 -0.3474280834197998 -2.3617424964904785 
O -0.6792736053466797 -1.681892991065979 -0.6996831297874451 
H -1.2120062112808228 -1.572940468788147 0.10890612006187439 
