22

N -0.2958070635795593 2.0694639682769775 -0.5888788104057312 
C -0.053278349339962006 1.1625797748565674 0.5077539682388306 
C -1.2904642820358276 0.7348896265029907 1.246334433555603 
O 0.8944362998008728 1.9057902097702026 1.316514253616333 
C 0.7984471321105957 -0.08347371965646744 -0.016290148720145226 
N 2.0107226371765137 0.39743945002555847 -0.5417353510856628 
O -0.6378222703933716 -1.8323962688446045 0.22559420764446259 
C -0.14002837240695953 -2.9906373023986816 -0.4218446612358093 
H -0.7136388421058655 2.970425605773926 -0.29094305634498596 
H -0.6929142475128174 1.6351884603500366 -1.4026824235916138 
H -1.0560710430145264 -0.0357801653444767 1.9739129543304443 
H -2.0330722332000732 0.3911546766757965 0.5102677345275879 
H -1.7201850414276123 1.593804955482483 1.798243522644043 
H 0.4319296181201935 2.5746774673461914 1.8051354885101318 
H 1.0330339670181274 -0.7544956207275391 0.8668501377105713 
H 2.630280017852783 -0.32403138279914856 -0.8143875598907471 
H 1.9767731428146362 1.326255202293396 -0.8654677867889404 
H 0.3867909610271454 -2.672269821166992 -1.4245579242706299 
H 0.5879793167114258 -3.519232988357544 0.1517208367586136 
H -0.9839675426483154 -3.602480173110962 -0.764898419380188 
O -0.1259126365184784 -0.3033972382545471 -1.7248117923736572 
H -1.0072309970855713 -0.6434734463691711 -1.54582941532135 
