22

N -0.16289092600345612 2.3480730056762695 0.7542005777359009 
C 0.4393669664859772 1.035623550415039 0.4430418610572815 
C 1.262942910194397 0.55766761302948 1.6710914373397827 
O 1.2403100728988647 1.2335489988327026 -0.6429762840270996 
C -0.7235041856765747 0.03961216285824776 0.04184712469577789 
N -1.7923997640609741 0.12865935266017914 0.9381186962127686 
O 0.4899059534072876 -0.8590273261070251 -1.7915133237838745 
C -0.27113431692123413 -1.7435656785964966 -2.516350746154785 
H -0.7016710042953491 2.7162973880767822 0.034879375249147415 
H -0.12514303624629974 2.6464154720306396 1.6803265810012817 
H 2.035151243209839 1.299675703048706 1.9012610912322998 
H 1.72897469997406 -0.42463481426239014 1.4741477966308594 
H 0.5980216264724731 0.45086875557899475 2.548269271850586 
H 1.5475102663040161 0.35741809010505676 -0.9285834431648254 
H -1.10530424118042 0.0904938206076622 -0.9780258536338806 
H -1.7182153463363647 0.7057152390480042 1.718079686164856 
H -2.314150094985962 -0.7634682059288025 0.9649356603622437 
H 0.4278769791126251 -2.2375974655151367 -3.226677656173706 
H -0.5815587639808655 -2.621363878250122 -1.8143911361694336 
H -1.1208125352859497 -1.3273156881332397 -2.985427141189575 
O 0.025934526696801186 -1.7259540557861328 0.6331676840782166 
H 0.8207886815071106 -1.9071425199508667 0.08057968318462372 
