22

N 1.5071330070495605 -0.5376596450805664 0.9819857478141785 
C 0.8172512650489807 0.6172703504562378 0.7012804746627808 
C 1.5912436246871948 1.5412336587905884 -0.31240788102149963 
O 0.6432049870491028 1.3122742176055908 1.974302053451538 
C -0.6625201106071472 0.3142233192920685 0.22199580073356628 
N -1.2960206270217896 1.5452961921691895 -0.08230642974376678 
O -0.5669225454330444 -1.912794589996338 0.10623316466808319 
C -1.6808264255523682 -2.6213088035583496 -0.36913540959358215 
H 2.4372475147247314 -0.33382657170295715 1.3727355003356934 
H 1.471418023109436 -1.1928044557571411 0.22665974497795105 
H 1.6155496835708618 1.04938805103302 -1.3102374076843262 
H 2.6135077476501465 1.7550976276397705 0.08295206725597382 
H 1.1535911560058594 2.540468454360962 -0.38480696082115173 
H 0.5846335887908936 2.286059856414795 1.7727627754211426 
H -1.275570273399353 -0.15310953557491302 0.9918100237846375 
H -0.8924463987350464 2.043588399887085 -0.8583328127861023 
H -2.2967379093170166 1.526280164718628 -0.0382673554122448 
H -2.643953561782837 -2.3063628673553467 0.03494452312588692 
H -1.7575738430023193 -2.500588893890381 -1.5330673456192017 
H -1.5031039714813232 -3.6831374168395996 -0.23087424039840698 
O -0.23737262189388275 -0.2825029790401459 -1.6704005002975464 
H 0.37826910614967346 -1.0070836544036865 -1.677824854850769 
