22

N -0.10144749283790588 2.1296441555023193 -1.2891165018081665 
C -0.40047982335090637 0.7440928220748901 -0.8642808198928833 
C -0.3688524663448334 -0.15962639451026917 -2.1304051876068115 
O -1.6659547090530396 0.8045963644981384 -0.344696581363678 
C 0.5980123281478882 0.30899521708488464 0.26961472630500793 
N 1.9162540435791016 0.6222425103187561 -0.087562195956707 
O -1.0928828716278076 -0.7157252430915833 1.579276442527771 
C -0.5830816030502319 -1.1758276224136353 2.775376558303833 
H -0.06904248893260956 2.7569503784179688 -0.5228495597839355 
H 0.4246877133846283 2.2406020164489746 -2.1101620197296143 
H 0.6450343132019043 -0.22197581827640533 -2.540839195251465 
H -1.0258440971374512 0.29317912459373474 -2.8999671936035156 
H -0.6575800180435181 -1.2010517120361328 -1.891340732574463 
H -1.8328577280044556 -0.09681953489780426 0.025183675810694695 
H 0.3935670852661133 0.6613377928733826 1.2706329822540283 
H 2.5724985599517822 -0.011899235658347607 0.4291839897632599 
H 2.1425015926361084 0.8864642381668091 -0.9882880449295044 
H -0.31386253237724304 -0.37191176414489746 3.4430861473083496 
H -1.3657993078231812 -1.8539811372756958 3.1840643882751465 
H 0.3144204616546631 -1.8522900342941284 2.5822153091430664 
O 0.6640089750289917 -1.6966121196746826 -0.0630924329161644 
H -0.19329988956451416 -2.090383768081665 0.1739652007818222 
