22

N 0.28041720390319824 1.4866231679916382 1.0347956418991089 
C 0.958181619644165 0.36764606833457947 0.5668044686317444 
C 1.2552313804626465 -0.6764279007911682 1.654784917831421 
O 2.22135066986084 0.8393505811691284 -0.05876907333731651 
C 0.26098713278770447 -0.23350699245929718 -0.7258458733558655 
N 1.0862293243408203 -1.2364205121994019 -1.2616750001907349 
O -1.6717861890792847 0.8934012055397034 -0.6190271377563477 
C -2.598248243331909 0.5744041800498962 -1.60395348072052 
H 0.7543390393257141 1.9267867803573608 1.8429230451583862 
H -0.6944432258605957 1.2730135917663574 1.16484797000885 
H 2.0299532413482666 -0.29855120182037354 2.3642985820770264 
H 1.5680769681930542 -1.6470701694488525 1.2894554138183594 
H 0.30424386262893677 -0.854278564453125 2.240818738937378 
H 2.7611894607543945 1.1562730073928833 0.6916505694389343 
H 0.06335185468196869 0.48067018389701843 -1.5267282724380493 
H 1.8813878297805786 -0.8906397223472595 -1.7572838068008423 
H 1.0135525465011597 -2.129059314727783 -0.8531208038330078 
H -2.2901878356933594 0.7448894381523132 -2.5990211963653564 
H -2.8657448291778564 -0.5762782692909241 -1.4577168226242065 
H -3.5656673908233643 1.030564785003662 -1.3395761251449585 
O -1.0830864906311035 -1.3676103353500366 0.20528478920459747 
H -1.669327735900879 -0.8637803792953491 0.7470544576644897 
