22

N -1.6459134817123413 -0.85162353515625 0.21205955743789673 
C -0.3435111939907074 -0.9550028443336487 0.6448805928230286 
C -0.12203086912631989 -0.5179228186607361 2.112111806869507 
O 0.0646594688296318 -2.3572118282318115 0.49182799458503723 
C 0.6475913524627686 -0.2523896098136902 -0.37822526693344116 
N 1.9714553356170654 -0.5464053153991699 -0.03613739460706711 
O -0.7806848287582397 0.9095718860626221 -1.5885204076766968 
C -0.2576589584350586 1.7913025617599487 -2.5201609134674072 
H -2.334021806716919 -1.2779037952423096 0.8467256426811218 
H -1.862527847290039 0.13172081112861633 0.013908294960856438 
H -0.5903497934341431 0.49618881940841675 2.2632365226745605 
H -0.6079143285751343 -1.2292749881744385 2.80757999420166 
H 0.9535610675811768 -0.44073939323425293 2.3717844486236572 
H -0.29604649543762207 -2.823079824447632 1.262162446975708 
H 0.512588620185852 -0.6159437894821167 -1.413437008857727 
H 2.168151617050171 -1.4339497089385986 0.3334747552871704 
H 2.546642780303955 0.2556278109550476 0.14580152928829193 
H 0.22838881611824036 1.2650096416473389 -3.3541762828826904 
H -1.047951340675354 2.4353744983673096 -2.8851187229156494 
H 0.4998605251312256 2.4973785877227783 -2.007866144180298 
O 0.5776468515396118 1.5786049365997314 0.39166751503944397 
H -0.28193560242652893 1.9406687021255493 0.28642159700393677 
