22

N 1.4248814582824707 0.8861768841743469 -0.9103910326957703 
C 0.2097083181142807 0.29183146357536316 -1.17595636844635 
C 0.32548558712005615 -1.0862832069396973 -1.8697987794876099 
O -0.4934839606285095 1.2270549535751343 -2.048384428024292 
C -0.6838874816894531 0.26725178956985474 0.1476335972547531 
N -1.9906301498413086 -0.15439118444919586 -0.1763136237859726 
O 0.8193409442901611 0.6571179628372192 1.686191201210022 
C 0.39200228452682495 0.6013230085372925 3.0157036781311035 
H 1.8604990243911743 0.41542619466781616 -0.11791305989027023 
H 2.019186496734619 0.9205849170684814 -1.7557013034820557 
H 0.7655521035194397 -0.9941375255584717 -2.8782646656036377 
H -0.6676711440086365 -1.5657237768173218 -1.998367428779602 
H 0.9667565822601318 -1.762162208557129 -1.2391180992126465 
H -0.8499589562416077 0.7338247299194336 -2.8323535919189453 
H -0.7790581583976746 1.2933502197265625 0.5687854886054993 
H -2.3182971477508545 -0.04952939972281456 -1.084496259689331 
H -2.5508809089660645 -0.3006502091884613 0.6411391496658325 
H -0.09144885838031769 -0.4267323315143585 3.2205004692077637 
H -0.3146306872367859 1.3777680397033691 3.2782375812530518 
H 1.2942562103271484 0.6236612200737 3.6415016651153564 
O -0.1369270235300064 -1.5195722579956055 0.8164876699447632 
H 0.7992054224014282 -1.4361894130706787 1.070878505706787 
