22

N 1.1779378652572632 -1.3662707805633545 0.48030003905296326 
C 1.1511492729187012 -0.22423537075519562 -0.26646846532821655 
C 1.1235058307647705 -0.42961955070495605 -1.7938286066055298 
O 2.3595974445343018 0.5502315759658813 0.10664839297533035 
C 0.04057479649782181 0.7868015170097351 0.2670898139476776 
N 0.1635521799325943 2.023343086242676 -0.34911641478538513 
O -1.1248598098754883 -0.6022897362709045 1.520553469657898 
C -2.3809828758239746 -0.16840860247612 1.9405922889709473 
H 1.9231336116790771 -2.032602548599243 0.17907772958278656 
H 0.253967821598053 -1.781488060951233 0.5509741306304932 
H 2.1155505180358887 -0.6537663340568542 -2.2024245262145996 
H 0.672532856464386 0.4226861298084259 -2.360718011856079 
H 0.41961178183555603 -1.2972251176834106 -2.0222315788269043 
H 3.1006438732147217 0.15079562366008759 -0.35258054733276367 
H 0.11534923315048218 0.9710632562637329 1.3489599227905273 
H 1.0156652927398682 2.2499749660491943 -0.7922857403755188 
H -0.7175415754318237 2.3757500648498535 -0.7212875485420227 
H -2.593348741531372 -0.5020073056221008 2.9180562496185303 
H -3.208404541015625 -0.5923850536346436 1.2245278358459473 
H -2.53617525100708 0.9272826313972473 1.8240917921066284 
O -1.4617830514907837 0.04631209373474121 -0.8748194575309753 
H -1.6096779108047485 -0.8539426922798157 -0.6251111626625061 
