22

N -0.33392831683158875 -0.5129016637802124 -1.6733211278915405 
C -0.4713963270187378 0.5684176683425903 -0.800515353679657 
C -1.9003678560256958 1.2042829990386963 -0.703795850276947 
O 0.3967379033565521 1.5998451709747314 -1.3554753065109253 
C 0.09643584489822388 0.2819196581840515 0.6359403133392334 
N 0.1023477092385292 1.4316576719284058 1.4279593229293823 
O 0.70902019739151 -1.836417555809021 0.27415749430656433 
C 1.1947100162506104 -2.404024124145508 1.4411298036575317 
H -0.8247067332267761 -0.38896721601486206 -2.5661613941192627 
H -0.5891563296318054 -1.3729796409606934 -1.1838164329528809 
H -2.609443426132202 0.3979329466819763 -0.42480412125587463 
H -2.1959829330444336 1.554013729095459 -1.7100402116775513 
H -1.973463773727417 2.028712034225464 0.009066908620297909 
H 0.08262866735458374 1.7520374059677124 -2.287865400314331 
H -0.6027732491493225 -0.4488588869571686 1.1659867763519287 
H 0.14142239093780518 2.3017406463623047 0.9192057251930237 
H 0.8344021439552307 1.3670941591262817 2.142007827758789 
H 1.9130007028579712 -1.623640775680542 1.9366616010665894 
H 1.8323132991790771 -3.2311623096466064 1.1840485334396362 
H 0.4323273301124573 -2.6259500980377197 2.1757004261016846 
O 1.9479769468307495 0.20282848179340363 0.10613954812288284 
H 1.8178960084915161 -0.24558065831661224 -0.7122087478637695 
