22

N -0.1180463507771492 2.104344606399536 0.6463416218757629 
C -0.49370986223220825 1.0951932668685913 -0.34192973375320435 
C 0.45607274770736694 1.024757981300354 -1.5093446969985962 
O -1.8616565465927124 1.426914930343628 -0.6763022541999817 
C -0.6732250452041626 -0.2975384294986725 0.4158802628517151 
N -1.549615740776062 -0.11593117564916611 1.503646731376648 
O 0.9766625165939331 -1.6139073371887207 -0.6771460175514221 
C 1.045739769935608 -2.8668053150177 -0.04564917832612991 
H 0.7421606183052063 1.8619188070297241 1.116752028465271 
H -0.13204793632030487 3.0697062015533447 0.24061928689479828 
H 0.11735512316226959 0.20817023515701294 -2.169996738433838 
H 1.4745358228683472 0.9016971588134766 -1.1421945095062256 
H 0.4061516523361206 1.9497665166854858 -2.113395929336548 
H -1.8471280336380005 1.983498454093933 -1.4632892608642578 
H -0.9796380400657654 -1.1406220197677612 -0.20238156616687775 
H -2.487170457839966 0.08424510806798935 1.1710208654403687 
H -1.1667077541351318 0.5047974586486816 2.1987192630767822 
H 0.2284836620092392 -3.5135998725891113 -0.25522884726524353 
H 1.0215866565704346 -2.698593854904175 1.1399669647216797 
H 2.0452535152435303 -3.282944679260254 -0.17098502814769745 
O 1.0039645433425903 -0.24368323385715485 1.4370113611221313 
H 1.790979027748108 -0.44138476252555847 0.8978851437568665 
