22

N 0.09088831394910812 2.1704092025756836 0.37300994992256165 
C 0.21542170643806458 0.8596093058586121 0.9330118894577026 
C 1.6223500967025757 0.3522631525993347 1.0297045707702637 
O -0.4151396155357361 1.0789926052093506 2.241267681121826 
C -0.7449061274528503 -0.15879468619823456 0.16403159499168396 
N -2.0629470348358154 0.30486544966697693 0.2745840549468994 
O 0.766345739364624 -1.5348997116088867 -0.9523389339447021 
C 0.002441953169181943 -2.3594350814819336 -1.8286279439926147 
H 0.5115610957145691 2.9018101692199707 0.9635516405105591 
H 0.310435950756073 2.2083072662353516 -0.6231445074081421 
H 2.1077263355255127 0.4690999984741211 0.05178853124380112 
H 2.1955556869506836 0.9278531670570374 1.7754327058792114 
H 1.6163053512573242 -0.6877240538597107 1.403989553451538 
H -0.057239025831222534 0.3940424919128418 2.869943380355835 
H -0.6402559876441956 -1.191344976425171 0.5354567766189575 
H -2.13981556892395 1.2054216861724854 0.6835956573486328 
H -2.733680486679077 -0.3304833471775055 -0.035785011947155 
H 0.6745632290840149 -2.760483741760254 -2.579157829284668 
H -0.5766674280166626 -3.112537384033203 -1.2984439134597778 
H -0.7580050230026245 -1.6906088590621948 -2.4129340648651123 
O -0.4445158839225769 0.5599247217178345 -1.6477138996124268 
H 0.45957669615745544 0.39371243119239807 -1.9212223291397095 
