22

N 0.19251906871795654 0.4398961663246155 1.7851918935775757 
C -0.8065509796142578 0.25293830037117004 0.8328059315681458 
C -1.6259194612503052 -1.0379490852355957 1.0145130157470703 
O -1.708777666091919 1.4228816032409668 0.8717395067214966 
C -0.22356300055980682 0.43835487961769104 -0.6346689462661743 
N -1.2801618576049805 0.47084835171699524 -1.5413168668746948 
O 1.9564018249511719 0.3320011794567108 -0.19386667013168335 
C 2.788949728012085 0.34699201583862305 -1.294791579246521 
H 0.9906861782073975 -0.14595764875411987 1.5686960220336914 
H -0.1854253113269806 0.3456583321094513 2.750058889389038 
H -2.1196234226226807 -1.4193196296691895 0.11835891008377075 
H -0.8947031497955322 -1.8769257068634033 1.3073172569274902 
H -2.350644111633301 -0.9375433921813965 1.846352219581604 
H -2.128100633621216 1.3844828605651855 1.7501983642578125 
H 0.3521821200847626 1.377366542816162 -0.7629181742668152 
H -1.6034703254699707 -0.40593618154525757 -1.8745015859603882 
H -1.8328288793563843 1.2943143844604492 -1.506834864616394 
H 2.4712555408477783 -0.5400493144989014 -1.9995801448822021 
H 2.756016254425049 1.2963447570800781 -1.839497447013855 
H 3.8102779388427734 0.09404630959033966 -1.014847755432129 
O 0.3838908076286316 -1.4463779926300049 -0.9110403656959534 
H 1.0575886964797974 -1.6860671043395996 -0.27136850357055664 
