22

N 1.4198012351989746 -1.4118475914001465 -0.21342556178569794 
C 0.1972970813512802 -0.9687317609786987 0.36746495962142944 
C -0.7851921916007996 -2.1874191761016846 0.6080163717269897 
O 0.5466903448104858 -0.4813523590564728 1.5833758115768433 
C -0.5117420554161072 0.1149691641330719 -0.5257086157798767 
N -1.1001801490783691 -0.46661779284477234 -1.6597692966461182 
O 0.4265889823436737 1.7461373805999756 0.9375947117805481 
C 0.05261235311627388 3.028204917907715 0.5893643498420715 
H 1.5736870765686035 -1.3516894578933716 -1.193729043006897 
H 1.8113057613372803 -2.246675491333008 0.23416192829608917 
H -0.2887209355831146 -2.9106836318969727 1.2767913341522217 
H -1.7252492904663086 -1.8423725366592407 1.085458755493164 
H -1.0044689178466797 -2.7292869091033936 -0.3415586054325104 
H -0.19569863379001617 0.10059908032417297 1.887481689453125 
H -1.1936373710632324 0.7997102737426758 -0.08409425616264343 
H -1.5198543071746826 0.21497155725955963 -2.271413803100586 
H -0.6843888759613037 -1.2676067352294922 -2.0650830268859863 
H 0.7927427887916565 3.6920242309570312 1.1066633462905884 
H -0.9504324793815613 3.2455945014953613 0.862544059753418 
H 0.23110215365886688 3.200200319290161 -0.5070220828056335 
O 1.1819496154785156 0.9283820390701294 -1.222761869430542 
H 1.7257871627807617 0.7934900522232056 -0.4543507397174835 
