22

N -1.3038218021392822 0.5034602284431458 1.2807502746582031 
C -0.3321518898010254 -0.4735398590564728 1.0970598459243774 
C 0.9075260162353516 -0.2280900925397873 2.0098743438720703 
O -0.9717327952384949 -1.739017367362976 1.4405109882354736 
C 0.032804179936647415 -0.6200295090675354 -0.4342424273490906 
N 0.9754769802093506 -1.6470329761505127 -0.5641793608665466 
O -1.070291519165039 1.158150553703308 -1.2418588399887085 
C -0.8968051671981812 1.37411630153656 -2.6349403858184814 
H -1.606623888015747 0.562847375869751 2.2655434608459473 
H -1.0201926231384277 1.3722583055496216 0.8426560759544373 
H 0.5941879153251648 -0.21904046833515167 3.082578659057617 
H 1.6216633319854736 -1.079549789428711 1.9689793586730957 
H 1.4426822662353516 0.6912130117416382 1.6959364414215088 
H -0.28235873579978943 -2.332120895385742 1.8061085939407349 
H -0.8417284488677979 -0.9056923985481262 -1.021551489830017 
H 1.8830382823944092 -1.4679356813430786 -0.1388380378484726 
H 1.0255522727966309 -2.079141139984131 -1.4700590372085571 
H -1.1278483867645264 2.439725399017334 -2.834897994995117 
H -1.4640429019927979 0.7165693044662476 -3.234044075012207 
H 0.22214344143867493 1.3088465929031372 -2.8966166973114014 
O 1.311037302017212 0.9133824706077576 -0.6286154985427856 
H 0.9014863967895508 1.7506210803985596 -0.39015382528305054 
