22

N 0.777351438999176 1.956932783126831 1.3049510717391968 
C -0.11924974620342255 0.9094153642654419 0.7947657108306885 
C -1.447576642036438 1.5649327039718628 0.3448960781097412 
O -0.3222963511943817 0.07223737984895706 1.854161024093628 
C 0.6313599348068237 0.12853287160396576 -0.35677188634872437 
N 1.224133849143982 1.022416114807129 -1.2517657279968262 
O -0.07256177067756653 -2.0067436695098877 0.42922094464302063 
C 0.43704959750175476 -3.0226993560791016 -0.3490518629550934 
H 1.646323323249817 1.5987433195114136 1.6254109144210815 
H 0.569814145565033 2.8875343799591064 1.0629363059997559 
H -2.1933035850524902 0.8019401431083679 0.017415590584278107 
H -1.283393144607544 2.2376866340637207 -0.5198124051094055 
H -1.8542641401290894 2.1781413555145264 1.1687920093536377 
H -0.7847888469696045 -0.7167356610298157 1.5052140951156616 
H 1.3464566469192505 -0.6288431882858276 -0.04073392599821091 
H 1.3894579410552979 0.5250173211097717 -2.1614391803741455 
H 0.9769769906997681 1.9537872076034546 -1.2440048456192017 
H 0.24491889774799347 -2.7980306148529053 -1.4552747011184692 
H 1.4648818969726562 -3.1951253414154053 -0.15581849217414856 
H -0.19942885637283325 -3.920318841934204 -0.154500812292099 
O -0.9367133975028992 -0.4642193913459778 -1.469668984413147 
H -1.4951484203338623 -1.084601640701294 -0.948920488357544 
