22

N -0.7904351353645325 1.9009990692138672 -1.3962430953979492 
C -0.7931862473487854 0.8134898543357849 -0.3835163414478302 
C -2.0791618824005127 -0.025628868490457535 -0.5644071102142334 
O -0.7829920649528503 1.4831346273422241 0.8090323805809021 
C 0.5457684993743896 -0.01714634709060192 -0.5017353892326355 
N 0.785101592540741 -0.3593277931213379 -1.8356709480285645 
O 0.8299944996833801 -0.08311373740434647 1.848544716835022 
C 2.042893648147583 -0.6745737195014954 2.185178518295288 
H 0.04559631273150444 2.4283440113067627 -1.3882313966751099 
H -1.3477345705032349 1.7396266460418701 -2.198662281036377 
H -2.9573400020599365 0.6388990879058838 -0.519201397895813 
H -2.069256544113159 -0.5394595265388489 -1.5495765209197998 
H -2.1537373065948486 -0.828713595867157 0.20581263303756714 
H -0.7753928899765015 0.7767044901847839 1.5045443773269653 
H 1.4307210445404053 0.3970472514629364 -0.02638343907892704 
H 0.10556388646364212 -0.23098358511924744 -2.516357660293579 
H 1.4208272695541382 -1.1824487447738647 -1.868691086769104 
H 2.886648654937744 -0.08686049282550812 1.8987599611282349 
H 1.9597631692886353 -0.8394727110862732 3.301453113555908 
H 2.0820887088775635 -1.7257622480392456 1.771918773651123 
O -0.0730971172451973 -1.8224427700042725 0.13572721183300018 
H -0.31263428926467896 -1.762311577796936 1.0877048969268799 
