22

N -0.5835047364234924 0.4617610573768616 1.715733528137207 
C 0.42742517590522766 -0.24337470531463623 1.100964903831482 
C 1.800325870513916 0.4412370026111603 1.1353422403335571 
O 0.48820266127586365 -1.5667074918746948 1.762178897857666 
C -0.026741724461317062 -0.7118392586708069 -0.35185706615448 
N 0.9136275053024292 -1.6255601644515991 -0.8564499020576477 
O -1.750969409942627 0.6139236688613892 -0.6788649559020996 
C -2.340996265411377 0.6109925508499146 -1.9573136568069458 
H -0.8784304857254028 1.2275742292404175 1.1132686138153076 
H -0.32585573196411133 0.7746766805648804 2.6704483032226562 
H 2.5322265625 0.05619828775525093 0.4355763792991638 
H 1.668471097946167 1.5234460830688477 0.8324897289276123 
H 2.2495739459991455 0.40478888154029846 2.14501953125 
H 1.0231242179870605 -1.4464085102081299 2.5572996139526367 
H -1.0059113502502441 -1.2182259559631348 -0.3310067355632782 
H 0.6381413340568542 -2.565778970718384 -0.9289636015892029 
H 1.7907825708389282 -1.3110486268997192 -1.07586669921875 
H -1.6056190729141235 1.1233381032943726 -2.699312210083008 
H -2.5891947746276855 -0.39314037561416626 -2.2860970497131348 
H -3.211150884628296 1.2549139261245728 -1.9254385232925415 
O 0.5898979306221008 0.8932782411575317 -1.3686354160308838 
H 0.19657546281814575 1.6959561109542847 -1.008514642715454 
