22

N 1.7854000329971313 0.223595529794693 -0.5673660635948181 
C 1.0292266607284546 0.21029727160930634 0.6026110053062439 
C 0.8014885783195496 1.6033128499984741 1.2042783498764038 
O 1.732060432434082 -0.593052327632904 1.6016888618469238 
C -0.28206732869148254 -0.6446670889854431 0.38965892791748047 
N -0.869644284248352 -0.8989043235778809 1.6437052488327026 
O -0.4169277250766754 -0.6612221002578735 -1.802362322807312 
C -1.581463098526001 -1.19112229347229 -2.3574953079223633 
H 1.1989049911499023 0.5317698121070862 -1.357077717781067 
H 2.6731157302856445 0.7268791198730469 -0.48491764068603516 
H 0.5149480104446411 2.325652599334717 0.3526003360748291 
H -0.03632229566574097 1.6974889039993286 1.8841886520385742 
H 1.715191125869751 1.9913893938064575 1.6836003065109253 
H 2.547135829925537 -0.1303129941225052 1.8227027654647827 
H -0.02536054141819477 -1.6234980821609497 -0.06994310021400452 
H -0.9098670482635498 -0.20525050163269043 2.3012163639068604 
H -1.3748060464859009 -1.7409751415252686 1.7228678464889526 
H -1.7184299230575562 -2.2340798377990723 -2.1633858680725098 
H -1.6269848346710205 -0.930569052696228 -3.4131367206573486 
H -2.49460506439209 -0.5886935591697693 -1.9138720035552979 
O -1.5135276317596436 0.8586258888244629 -0.14315254986286163 
H -1.1474664211273193 1.2733356952667236 -0.9364093542098999 
