9
[N:1]([c+:2]1[n-:3][c:4]([H:9])[n:5][o:6]1)([H:7])[H:8]
N	1.7515615778	-0.0783896751	0.0129316592
C	0.3924151309	-0.0625085094	0.0798086321
N	-0.4236631014	0.8362921004	-0.4340620165
C	-1.6413152487	0.2909458509	-0.1224512031
N	-1.6463873440	-0.8482443035	0.5347349348
O	-0.2334861490	-1.1031978167	0.6805365006
H	2.1591923748	0.8239960539	-0.2060454281
H	2.2293289849	-0.6144399843	0.7289208711
H	-2.5876462255	0.7555462838	-0.3935262113
