13

C 1.7909423112869263 0.596991240978241 0.5855516791343689
O 0.5307721495628357 0.09668484330177307 0.9509298205375671
C -0.04596466198563576 -0.6950348019599915 -0.045720651745796204
C -1.4517982006072998 -0.6923458576202393 -0.09351488202810287
O -1.5587055683135986 0.3914114534854889 -1.6083022356033325
H 2.162027359008789 1.1878548860549927 1.4223555326461792
H 2.50222110748291 -0.21351578831672668 0.3814733028411865
H 1.7263818979263306 1.22958505153656 -0.3090110719203949
H -0.4253983199596405 0.057112064212560654 -1.2035915851593018
H 0.48121151328086853 -1.6245979070663452 -0.2604717016220093
H -1.970199465751648 -1.5310877561569214 -0.5363168716430664
H -2.0237317085266113 -0.09124927967786789 0.6038382649421692
H -1.7789554595947266 1.3074898719787598 -1.397606611251831