14

C 0.3128342926502228 -1.226394772529602 -1.4158134460449219 
C 1.093674898147583 -0.33358654379844666 -0.6814906597137451 
C -0.13531340658664703 0.5286112427711487 1.212775468826294 
N -0.06691301614046097 1.9411375522613525 0.9873096346855164 
C -1.2372066974639893 -0.21683281660079956 0.844808042049408 
N -1.8300031423568726 -1.0405375957489014 0.14535705745220184 
H 0.5371520519256592 -2.301685333251953 -1.3445557355880737 
H -0.09169694036245346 -0.9072443842887878 -2.3847544193267822 
H -0.9988257884979248 -1.287678837776184 -0.7068527936935425 
H 1.8337483406066895 -0.6817321181297302 0.02332296036183834 
H 1.1674258708953857 0.7130669355392456 -0.9711964726448059 
H 0.49883314967155457 0.1378229558467865 2.0042874813079834 
H -0.19108983874320984 2.4544756412506104 1.8662081956863403 
H -0.8926198482513428 2.2205772399902344 0.42059507966041565 
