18

C 2.2932803630828857 -0.2002250701189041 -1.3683969974517822 
O 1.0998330116271973 0.22442132234573364 0.9397012591362 
C -0.23561395704746246 0.05092567205429077 0.4879862368106842 
C -0.39513689279556274 0.7785940170288086 -0.8594187498092651 
C -0.581282913684845 -1.4422907829284668 0.3417193591594696 
C -1.1383851766586304 0.7170179486274719 1.5427935123443604 
H 1.730366826057434 -0.1842883974313736 0.23143602907657623 
H 2.5410609245300293 0.802192747592926 -1.786706566810608 
H 1.8843458890914917 -0.7630165219306946 -2.2408971786499023 
H 0.3159123361110687 0.31040504574775696 -1.5844688415527344 
H -1.400861144065857 0.6936713457107544 -1.2972699403762817 
H -0.1206989660859108 1.8365378379821777 -0.7655752897262573 
H 0.07246900349855423 -1.9174597263336182 -0.4042361080646515 
H -0.4277655780315399 -1.9538896083831787 1.3007886409759521 
H -1.6252597570419312 -1.5897401571273804 0.028479158878326416 
H -1.0113285779953003 0.21175450086593628 2.5086541175842285 
H -0.8619838356971741 1.7723584175109863 1.6646599769592285 
H -2.194359540939331 0.6545534133911133 1.24751615524292 
