9

N 1.9517918825149536 0.48053213953971863 -0.04608084633946419 
C 1.3481005430221558 -0.5578479766845703 -0.3262404203414917 
N -0.8212196230888367 -0.6495783925056458 0.24358122050762177 
C -1.4124523401260376 0.4042590260505676 -0.40527641773223877 
O -2.6523287296295166 0.5022386312484741 -0.46182140707969666 
H 2.6754682064056396 0.4865996241569519 0.6995531916618347 
H 0.5624499917030334 -1.3398765325546265 -0.19044016301631927 
H -0.9151701331138611 -0.5133317708969116 1.2780442237854004 
H -0.7366398572921753 1.1870050430297852 -0.7913193106651306 
