10

O 1.8067957162857056 1.8928027153015137 -0.4272814393043518 
C 0.8060919046401978 1.3500975370407104 -0.09033693373203278 
C -0.763561487197876 -0.7201302647590637 -0.9901472926139832 
O -1.0154051780700684 -0.7589515447616577 0.3627590537071228 
C -0.07498645037412643 -0.5031787753105164 1.2283278703689575 
O 0.9896979331970215 0.1784457117319107 0.8264092206954956 
H -0.2561177611351013 1.584096908569336 -0.23393622040748596 
H 0.24019436538219452 -0.9785487055778503 -1.3167294263839722 
H -1.6189144849777222 -1.0816864967346191 -1.5561717748641968 
H -0.11379469931125641 -0.9629472494125366 2.1971068382263184 
