14

C -1.9386451244354248 0.2854321599006653 0.1880350559949875 
C -0.45346081256866455 0.16244962811470032 0.12515640258789062 
C 0.541752815246582 1.0745313167572021 0.48450255393981934 
C 1.792531132698059 0.4714750349521637 0.2592640817165375 
N 1.6366286277770996 -0.7495060563087463 -0.2617952823638916 
C 0.16203276813030243 -1.1044358015060425 -0.4189792275428772 
O -0.25296828150749207 -2.281707525253296 -0.47967469692230225 
H -2.2856948375701904 1.3251713514328003 0.1363769769668579 
H -2.2921736240386963 -0.15578916668891907 1.1342390775680542 
H -2.407320976257324 -0.2976522445678711 -0.6152583956718445 
H 0.011679872870445251 -0.4014834761619568 -1.4234533309936523 
H 0.38924717903137207 2.1031930446624756 0.7962480187416077 
H 2.772186279296875 0.9317449331283569 0.3651691973209381 
H 2.3751378059387207 -1.414801001548767 -0.4646453559398651 
