11

N -1.214840292930603 0.27406546473503113 0.9243858456611633 
C -0.32078614830970764 -1.1423863172531128 -0.31293967366218567 
C 0.9868171811103821 -0.45258575677871704 0.11458989977836609 
O 1.3524396419525146 -0.13330808281898499 -1.2692821025848389 
C -0.09946633130311966 0.12204697728157043 -1.1778794527053833 
C 0.0001095106708817184 0.7679886221885681 0.21741709113121033 
H -0.9350460767745972 0.151372492313385 1.9192843437194824 
H -1.2585654258728027 -1.000413179397583 0.4633724093437195 
H 1.7653543949127197 -0.8307629227638245 0.7881724834442139 
H -0.6359061002731323 0.45158815383911133 -2.0689260959625244 
H 0.3598893880844116 1.7923945188522339 0.40180540084838867 
