16

C 0.4130503535270691 -1.82173490524292 -0.6251130104064941 
C 0.18268920481204987 -0.506676435470581 0.08620631694793701 
C -0.5019419193267822 -0.6107838749885559 1.365058183670044 
C -1.1259839534759521 0.3200092315673828 -0.012417582795023918 
C -0.2632150650024414 1.5976896286010742 -0.34226641058921814 
N 0.8404863476753235 1.9184954166412354 0.5332355499267578 
C 0.9871777296066284 0.7844005227088928 -0.373381644487381 
H -0.5352587699890137 -2.2995853424072266 -0.911899209022522 
H 0.9475738406181335 -2.5169425010681152 0.04323125630617142 
H 1.0063867568969727 -1.6798062324523926 -1.5266196727752686 
H -0.24571074545383453 0.15995344519615173 2.090927839279175 
H -1.742556095123291 -0.07301029562950134 0.9690768122673035 
H -1.8210238218307495 -0.01229427196085453 -0.7897128462791443 
H -0.6952570080757141 2.3935210704803467 -0.9481185078620911 
H 0.7253085970878601 1.615694284439087 1.5020346641540527 
H 1.8282748460769653 0.7310701012611389 -1.06024169921875 
