11

O 0.5809106230735779 0.3385388255119324 2.6020054817199707 
C 0.07800211757421494 0.3446744382381439 1.5099573135375977 
C 0.25311344861984253 -1.1501268148422241 0.059567272663116455 
C -0.5619699954986572 -0.07689475268125534 -0.6559387445449829 
N 0.07113184034824371 0.5219109654426575 -1.7820169925689697 
C -0.4521075487136841 0.9917746782302856 0.4166581928730011 
H -0.021059758961200714 -2.2001633644104004 -0.06374824792146683 
H 1.3317158222198486 -0.9767545461654663 0.001462367712520063 
H -1.5988798141479492 -0.41933488845825195 -0.845858633518219 
H 1.0823427438735962 0.5908681154251099 -1.528133749961853 
H -0.763199508190155 2.0355074405670166 0.28604549169540405 
