11

N 0.3114408850669861 -0.7976015210151672 1.601531982421875 
C 0.4653100371360779 0.4625492990016937 0.60992431640625 
O 1.1036018133163452 1.451885461807251 0.8536064028739929 
C -0.3600919544696808 -0.09291442483663559 -0.43841904401779175 
C -0.3868059515953064 0.40442222356796265 -1.8297911882400513 
O -1.5171605348587036 0.609511137008667 -0.9484719634056091 
H -0.29707038402557373 -0.5852630138397217 2.4063100814819336 
H 1.2250193357467651 -1.1647869348526 1.8968968391418457 
H -0.17459210753440857 -1.2681982517242432 0.5738853812217712 
H -0.5547528266906738 -0.3147924840450287 -2.635798692703247 
H 0.18510183691978455 1.2951886653900146 -2.0896739959716797 
