13

C 1.962880253791809 -0.07709778845310211 -0.18134541809558868 
C 0.6678335070610046 0.26836535334587097 0.512968122959137 
C -1.294622778892517 0.8714349269866943 -0.7099139094352722 
C -1.4455556869506836 -0.3399524688720703 0.044955115765333176 
N -2.5980634689331055 -0.9092605113983154 0.07132235169410706 
O -0.2398100197315216 -0.8361343145370483 0.5265126824378967 
H 2.451009511947632 -0.9141764044761658 0.33910226821899414 
H 2.646165370941162 0.7823960781097412 -0.18288375437259674 
H 1.760493278503418 -0.3802279233932495 -1.216310977935791 
H 0.769639253616333 0.6906902194023132 1.5212211608886719 
H -1.977959394454956 1.6797367334365845 -0.3979473412036896 
H 0.1398177444934845 1.0754640102386475 -0.1807492971420288 
H -2.549795627593994 -1.932494878768921 0.15264497697353363 
