14

O 1.7305347919464111 -0.8976149559020996 -1.0086933374404907 
C 1.2255311012268066 -0.6529285311698914 0.19122768938541412 
C 0.5848621129989624 1.121631383895874 0.17581871151924133 
C -0.8695241808891296 0.9595535397529602 -0.155527263879776 
C -1.1623495817184448 -0.47470584511756897 -0.5980805158615112 
C -0.24140696227550507 -0.8705534338951111 0.5771129131317139 
N -0.39577293395996094 0.5442550182342529 1.1926836967468262 
H 1.251137375831604 0.31272637844085693 -0.8196524381637573 
H 1.8860975503921509 -0.633599042892456 1.0817705392837524 
H 1.027072787284851 2.0862295627593994 0.42506542801856995 
H -1.4983476400375366 1.8398616313934326 -0.2898608148097992 
H -0.871791660785675 -0.8049659132957458 -1.6032887697219849 
H -2.205183744430542 -0.7364228963851929 -0.3871676027774811 
H -0.48340409994125366 -1.7349159717559814 1.2030868530273438 
