12

C -0.9496304392814636 -1.0065906047821045 -0.1829570084810257 
C 0.09558486938476562 0.07452847063541412 -0.05084019526839256 
C -0.2597953677177429 1.478591799736023 0.2473459392786026 
O 0.21751326322555542 0.6484372615814209 1.3011330366134644 
C 1.3209556341171265 -0.02040114253759384 -1.288048267364502 
C 1.8010464906692505 -0.4973139464855194 -0.21233659982681274 
H -0.5804097652435303 -1.9492783546447754 0.24165689945220947 
H -1.17967689037323 -1.174007773399353 -1.2420583963394165 
H -1.8650182485580444 -0.7154046893119812 0.3494332730770111 
H -1.3235653638839722 1.7362186908721924 0.2892709970474243 
H 0.41568702459335327 2.2681899070739746 -0.091629259288311 
H 2.2840259075164795 -0.9291366934776306 0.6496936082839966 
