12

C -2.375856399536133 -0.10295271128416061 0.16353020071983337 
C -0.8860653638839722 -0.32582709193229675 -0.02296231873333454 
C -0.048190921545028687 0.7898426055908203 -0.20580554008483887 
C 3.2597744464874268 0.4732968807220459 -0.20252901315689087 
C 2.4765334129333496 -0.4503096044063568 -0.3339112401008606 
O -0.368660032749176 -1.4642066955566406 -0.16771821677684784 
H -2.62355637550354 0.9585370421409607 0.3127462863922119 
H -2.707211971282959 -0.6812695264816284 1.0370835065841675 
H -2.912567138671875 -0.47001704573631287 -0.7223600745201111 
H 0.4685806334018707 1.2192816734313965 0.6636980175971985 
H 3.938096761703491 1.2962238788604736 -0.10344813019037247 
H 1.7679818868637085 -1.2544224262237549 -0.4275144934654236 
