14

O -1.7059659957885742 0.405450701713562 -0.9816285967826843 
C -1.1464260816574097 0.9472715854644775 0.01030062697827816 
N -1.1607383489608765 0.1305190920829773 1.3331910371780396 
C -0.7352945804595947 -1.1274150609970093 1.1245123147964478 
C 1.019632339477539 -0.6678482294082642 -0.036269571632146835 
C 0.5079067945480347 0.7377950549125671 -0.1809270679950714 
C 1.6186449527740479 0.9923887252807617 -0.7515769004821777 
H -1.355934739112854 2.0044424533843994 0.30085060000419617 
H -0.7242124676704407 0.6099575757980347 2.125514507293701 
H -1.2371418476104736 -1.6459599733352661 0.3088998794555664 
H -0.36514440178871155 -1.7104815244674683 1.9661595821380615 
H 1.7609659433364868 -0.9190218448638916 0.7214952111244202 
H 0.928757905960083 -1.362005352973938 -0.8714600801467896 
H 2.4746506214141846 1.3630026578903198 -1.2890375852584839 
