12

C -0.6464225053787231 -1.470710277557373 -0.13361185789108276 
C -1.2097874879837036 -0.1169072836637497 0.1277935653924942 
O -0.5214441418647766 0.8017456531524658 1.5546530485153198 
C -0.29190731048583984 1.0538625717163086 0.11322443187236786 
C 1.1339987516403198 0.9131320714950562 -0.1658201366662979 
C 2.2624473571777344 0.8757075667381287 -0.6446313858032227 
H -0.6568751931190491 -1.625346064567566 -1.2256526947021484 
H 0.3954746425151825 -1.6002867221832275 0.20670010149478912 
H -1.265859842300415 -2.2530314922332764 0.32054397463798523 
H -1.5932605266571045 0.5594300627708435 1.4053465127944946 
H -0.7185900807380676 1.9915075302124023 -0.2550247311592102 
H 3.1122260093688965 0.8708962798118591 -1.303520679473877 
