14

O 0.9100639820098877 -1.9836962223052979 -0.18531139194965363 
C -0.2000839114189148 -1.1259773969650269 -0.4180247187614441 
C -0.0030566391069442034 0.22848154604434967 -1.1040139198303223 
C -0.603702962398529 0.9416291117668152 0.0010611958568915725 
O 0.9431440234184265 1.7938838005065918 0.5132392048835754 
C -0.7905166149139404 -0.3219544291496277 0.8032758831977844 
H 1.6950337886810303 -1.416684865951538 -0.24317830801010132 
H -0.9707756638526917 -1.7605726718902588 -0.8947558999061584 
H 1.108363389968872 0.9823599457740784 -0.3913559317588806 
H -0.13375993072986603 0.4596449136734009 -2.165877342224121 
H -1.2310385704040527 1.8404877185821533 0.028775086626410484 
H 1.3196320533752441 1.3571161031723022 1.3114919662475586 
H -0.20134276151657104 -0.4153596758842468 1.7316393852233887 
H -1.841960072517395 -0.5793577432632446 1.0130350589752197 
