15

O -1.9241243600845337 -0.4918143153190613 -2.182903528213501 
C -1.0699880123138428 -0.48610204458236694 -1.3012176752090454 
N 0.2805689573287964 -0.3368944525718689 -1.4161678552627563 
C 1.312764048576355 -0.5889685153961182 -0.40799590945243835 
C 1.09819495677948 0.6325549483299255 0.5329453945159912 
C -0.8804930448532104 0.03908177465200424 1.0874499082565308 
N -1.660536289215088 -0.043259989470243454 0.011214661411941051 
H 0.29879698157310486 0.9384967088699341 -0.5021203756332397 
H 2.290717124938965 -0.5789458155632019 -0.9020692110061646 
H 1.1982872486114502 -1.5400760173797607 0.12948527932167053 
H 1.6649068593978882 1.504311442375183 0.18917277455329895 
H 1.3828516006469727 0.46106117963790894 1.5853277444839478 
H -0.4376199245452881 -0.9095458984375 1.4017256498336792 
H -1.201770544052124 0.7017795443534851 1.8999847173690796 
H -2.3525562286376953 0.6983215808868408 -0.12483139336109161 
