11

N 1.1272082328796387 -0.7194904088973999 -0.6992706656455994 
C 1.3520170450210571 0.030763721093535423 0.37804916501045227 
O 2.3426177501678467 0.318530797958374 1.0356746912002563 
N -0.019357193261384964 0.6610721945762634 0.8908786177635193 
C -1.1686036586761475 0.35374563932418823 0.2416134625673294 
N -1.1279314756393433 0.34534281492233276 -1.0759268999099731 
H 1.636157751083374 -1.6142323017120361 -0.6191646456718445 
H -0.05679710581898689 -0.04110695794224739 -1.3310565948486328 
H -0.07804200798273087 0.6363535523414612 1.9243419170379639 
H -2.073916435241699 0.10110969096422195 0.8119820952415466 
H -1.9333525896072388 -0.07208873331546783 -1.5571209192276 
