17

C 2.602510690689087 -0.20514722168445587 0.5384532809257507 
O 1.5547823905944824 -0.20227956771850586 1.4908323287963867 
C 0.35340777039527893 0.34709474444389343 1.138067364692688 
C -1.318629503250122 0.4555651545524597 -0.6786268949508667 
C -2.6254096031188965 -0.08420851826667786 -0.8512025475502014 
C -0.11400783061981201 -0.346469521522522 -0.3139777183532715 
O 0.6757581233978271 -0.5254207253456116 -1.3206151723861694 
H 2.5028841495513916 0.5612822771072388 -0.25889354944229126 
H 2.587390899658203 -1.2044965028762817 0.06414224952459335 
H 3.5517191886901855 -0.010245611891150475 1.077735424041748 
H 0.40471574664115906 1.4581741094589233 0.9830948710441589 
H -0.38373565673828125 0.1299542337656021 1.9249939918518066 
H -1.138365626335144 1.5191112756729126 -0.8813297748565674 
H -1.8510756492614746 -0.022940047085285187 -1.8275874853134155 
H -2.7996907234191895 -1.114376425743103 -0.5156041979789734 
H -3.4980578422546387 0.5875356793403625 -0.6988826990127563 
H -0.504196286201477 -1.343133568763733 0.12940019369125366 
