14

C 0.8100771903991699 0.9856600165367126 -1.5438232421875 
C 0.3683609664440155 0.002895989455282688 -0.49223530292510986 
C 1.1124428510665894 -0.9362462162971497 0.15333318710327148 
O 0.40346387028694153 -1.6997127532958984 1.0342445373535156 
C -1.0498915910720825 -1.380008339881897 0.929772675037384 
N -1.2469183206558228 -0.11199647188186646 1.6968278884887695 
C -0.9799189567565918 -0.22935032844543457 -0.030927732586860657 
H 1.7440463304519653 1.4825892448425293 -1.254694938659668 
H 0.9638157486915588 0.48902928829193115 -2.5213983058929443 
H 0.05913743004202843 1.7661384344100952 -1.6997058391571045 
H 2.1835978031158447 -1.127667784690857 0.09710971266031265 
H -0.3997949957847595 0.3566032648086548 2.052105665206909 
H -2.0995490550994873 0.23776355385780334 2.0940678119659424 
H -1.8688695430755615 0.16430185735225677 -0.5146757364273071 
