17

C 2.537677526473999 0.25016433000564575 -0.04873593524098396 
O 1.572703242301941 -0.7513439655303955 -0.34137120842933655 
C 0.5390115976333618 -0.8563969731330872 0.621368944644928 
C -1.108203649520874 0.2189740687608719 -0.857661783695221 
C -2.4864962100982666 -0.10925743728876114 -0.9490193724632263 
C -0.5784151554107666 0.28770166635513306 0.5836637616157532 
O -1.4881843328475952 0.12419995665550232 1.5097179412841797 
H 2.127082586288452 1.2696869373321533 -0.14824579656124115 
H 3.3529396057128906 0.1233721524477005 -0.7718923687934875 
H 2.941192865371704 0.13827010989189148 0.9732890129089355 
H 0.9348084926605225 -0.8297290802001953 1.6494176387786865 
H 0.036358993500471115 -1.81667959690094 0.4508783519268036 
H -0.4606778025627136 0.14573517441749573 -1.7343031167984009 
H -1.876328945159912 1.1671955585479736 -1.0045844316482544 
H -2.9928171634674072 -0.3023949861526489 -1.8947393894195557 
H -2.99869704246521 -0.14507560431957245 0.018187230452895164 
H 0.013222451321780682 1.2485476732254028 0.6350305676460266 
