11

N -1.8936619758605957 -0.47047916054725647 -0.2839107811450958 
C -0.5789712071418762 -0.06946609914302826 -0.015271597541868687 
C 0.5965946912765503 -0.7554528117179871 -0.2906668186187744 
N 1.6425535678863525 0.08551447838544846 -0.015072980895638466 
N 1.1861648559570312 1.2394115924835205 0.5840370655059814 
C -0.23302340507507324 1.1979399919509888 0.580773651599884 
H -2.5544869899749756 0.06789956241846085 0.2733761668205261 
H -2.0628960132598877 -1.467286467552185 -0.1647617071866989 
H 0.7735646367073059 -1.7627404928207397 -0.6558513641357422 
H 2.626887321472168 -0.16109903156757355 0.03691162168979645 
H 0.6333796977996826 2.075005531311035 -0.05705323442816734 
