21

C 2.541029930114746 -0.11246612668037415 0.06826388090848923 
C 1.0640431642532349 -0.4987573027610779 0.27156826853752136 
C 0.4629763662815094 0.2642715275287628 1.4560102224349976 
C 0.2626573443412781 -0.2464389055967331 -1.0430091619491577 
C -1.1407862901687622 -0.7708360552787781 -1.173378348350525 
C -2.3921804428100586 1.0529205799102783 -0.3675778806209564 
O -1.519782304763794 -1.8165855407714844 -0.43952926993370056 
H 3.127943992614746 -0.3002607226371765 0.9785124063491821 
H 3.0008797645568848 -0.6687554717063904 -0.755638062953949 
H 2.6361751556396484 0.9554479122161865 -0.16877709329128265 
H 1.0329515933990479 -1.5827807188034058 0.47525665163993835 
H 0.464059054851532 1.3486192226409912 1.27800452709198 
H 1.0337501764297485 0.09118464589118958 2.384571075439453 
H -0.5744235515594482 -0.03549892455339432 1.6724047660827637 
H 0.7799524068832397 -0.7389853596687317 -1.8822475671768188 
H 0.27527162432670593 0.8304986357688904 -1.2560992240905762 
H -2.0046236515045166 0.05890059471130371 -1.4229506254196167 
H -2.8595218658447266 0.5602348446846008 0.4898444414138794 
H -1.6177492141723633 1.7751165628433228 -0.09189756214618683 
H -3.154139518737793 1.529597520828247 -1.000172734260559 
H -1.4184824228286743 -1.6954269409179688 0.5268409848213196 
