17

C 1.3556926250457764 1.5027217864990234 -0.008641351945698261 
O 1.1649428606033325 -0.4937465190887451 -0.9313749670982361 
C 0.36238133907318115 -1.3557405471801758 -0.18885162472724915 
C 0.0323740690946579 -1.108955979347229 1.2696378231048584 
C -1.031863808631897 -0.8860864639282227 0.21196207404136658 
C -1.4331237077713013 0.5304474234580994 -0.1990531086921692 
O -0.4698076844215393 1.1779183149337769 -1.040419340133667 
H 2.037179708480835 0.8685879111289978 0.546002209186554 
H 0.7137724757194519 2.144092559814453 0.5902945399284363 
H 1.7667044401168823 1.951583981513977 -0.9079047441482544 
H 0.48837733268737793 -2.4071569442749023 -0.47266390919685364 
H -0.07819460332393646 -1.9690372943878174 1.9312456846237183 
H 0.4622413218021393 -0.22894664108753204 1.7468310594558716 
H -1.8433674573898315 -1.6149779558181763 0.17961083352565765 
H -2.375335693359375 0.48634204268455505 -0.7710385918617249 
H -1.6198558807373047 1.1712515354156494 0.6820952296257019 
H 0.25552549958229065 0.3478708267211914 -1.3045319318771362 
