8

O -0.6226327419281006 1.8682891130447388 -1.3691283464431763 
C -0.20283034443855286 0.9444350004196167 -0.7835302352905273 
C 1.1739137172698975 0.23427462577819824 0.1727360635995865 
O 2.2307000160217285 0.7851595878601074 -0.02026054821908474 
C 0.5907129049301147 -0.8643536567687988 0.8312254548072815 
C -0.6811784505844116 -1.1165339946746826 0.5790401101112366 
H -1.0062146186828613 -0.1275099217891693 -0.3916440010070801 
H -1.4824705123901367 -1.7237606048583984 0.9815616011619568 
