15

C -0.7295591235160828 -0.6019208431243896 -1.6828404664993286 
C -0.8914969563484192 -0.5739877820014954 -0.1783287674188614 
C -0.9827955365180969 0.6501063704490662 0.509760856628418 
N 0.9664188623428345 1.205336093902588 1.0067028999328613 
C 1.6806449890136719 0.136859729886055 1.231744408607483 
O 1.4436966180801392 -1.0796560049057007 0.8093518614768982 
H -0.258146733045578 -1.5386829376220703 -2.0167534351348877 
H -0.07356751710176468 0.22591304779052734 -2.0157313346862793 
H -1.6824829578399658 -0.49834075570106506 -2.2161145210266113 
H 0.3035244643688202 -1.0166339874267578 0.36459437012672424 
H -1.5033960342407227 -1.376591682434082 0.2536483407020569 
H -1.0174773931503296 1.6103721857070923 -0.021712303161621094 
H -1.3487775325775146 0.683296799659729 1.5344666242599487 
H 1.5299242734909058 1.9363301992416382 0.5336732268333435 
H 2.563490629196167 0.23760010302066803 1.887538194656372 
