11

C 2.3822035789489746 -1.339593529701233 -0.5032827854156494 
C 1.2957513332366943 -0.8756476640701294 -0.12280553579330444 
C 0.21727032959461212 -0.10321027040481567 0.46528497338294983 
C -0.3802442252635956 0.9398148059844971 -0.34136778116226196 
C -1.8677525520324707 1.054427146911621 -0.3858940899372101 
N -2.381791830062866 -0.08111549913883209 -0.18319199979305267 
N -0.26606515049934387 -0.31802254915237427 1.6520329713821411 
H 3.3036584854125977 -1.544555425643921 -1.01375150680542 
H 0.20148876309394836 1.5334583520889282 -1.034404993057251 
H -2.378211498260498 2.0270912647247314 -0.48312878608703613 
H -0.12630783021450043 -1.2926472425460815 1.9505096673965454 
