14

C -0.4981519281864166 -0.37870755791664124 1.4153920412063599 
C -0.513853907585144 0.7945809364318848 0.44390609860420227 
O -1.7729289531707764 1.160486102104187 0.04007800295948982 
C 1.3785151243209839 0.5286325216293335 -0.6508521437644958 
C 1.0364859104156494 -0.7806475758552551 -1.2152187824249268 
O -0.06877724081277847 0.12413658201694489 -1.3129034042358398 
H -0.8516818284988403 -1.3040051460266113 0.9456685781478882 
H 0.5020594596862793 -0.5186731219291687 1.8284714221954346 
H -1.2005141973495483 -0.14224229753017426 2.234069585800171 
H 0.013502161018550396 1.6737604141235352 0.8076717853546143 
H -2.2068490982055664 0.3748437166213989 -0.344312459230423 
H 1.882299780845642 1.173834204673767 -1.3857923746109009 
H 1.3725718259811401 -1.045472502708435 -2.2297589778900146 
H 0.9273228049278259 -1.6605265140533447 -0.5764196515083313 
