10

N -0.36404407024383545 1.7966792583465576 0.5016977787017822 
C 0.3281197249889374 0.7067744731903076 -0.0024412674829363823 
N 0.735025942325592 -0.3221376836299896 0.7909286022186279 
N 0.6467168927192688 -1.525723934173584 0.36890771985054016 
C 0.081429123878479 -0.8164224028587341 -1.78533935546875 
N 0.19765643775463104 0.33529436588287354 -1.3411383628845215 
H -0.2669285535812378 1.884393334388733 1.505460500717163 
H -1.3418679237365723 1.8554116487503052 0.19641932845115662 
H 0.1359240859746933 -2.1353952884674072 1.050174355506897 
H -0.15203168988227844 -1.7788739204406738 -1.2846691608428955 
