16

C 0.1362694948911667 -0.19100111722946167 1.9284863471984863 
C -0.6768493056297302 0.5486259460449219 1.0448036193847656 
C -1.7253403663635254 -0.10457693040370941 0.29347795248031616 
C -1.3679550886154175 -0.08722442388534546 -1.051773190498352 
C -0.1343218833208084 0.6425296068191528 -1.1608597040176392 
C 1.0352979898452759 0.038656577467918396 -1.6611584424972534 
N 0.08471318334341049 1.291253924369812 0.09761295467615128 
H 1.042508840560913 -0.7252099514007568 0.7220562696456909 
H 0.8937129974365234 0.3585611879825592 2.5052270889282227 
H -0.15463446080684662 -1.1547406911849976 2.3487234115600586 
H -2.5978806018829346 -0.5948022603988647 0.7215201258659363 
H -1.842484712600708 -0.6191959381103516 -1.8705335855484009 
H 1.0084075927734375 -0.853074312210083 -2.295545816421509 
H 1.2964187860488892 -0.6503019332885742 -0.24810165166854858 
H 1.9548931121826172 0.6359127759933472 -1.7271684408187866 
H 1.0472445487976074 1.4645875692367554 0.3532335162162781 
