11

N 1.864630937576294 0.23920713365077972 1.457519769668579 
C 1.615561604499817 0.2183707058429718 0.26507607102394104 
C 0.9802210330963135 -0.3831407427787781 -0.9525243639945984 
O -0.3581266701221466 -0.3441295623779297 -1.115632176399231 
C -1.1445368528366089 -0.6253975033760071 0.07273240387439728 
C -1.5892671346664429 0.6273749470710754 0.694649338722229 
N -1.964215636253357 1.6227880716323853 1.1789191961288452 
H 1.4771653413772583 -0.22696979343891144 -1.9129468202590942 
H 1.7721185684204102 1.1409200429916382 -0.42110389471054077 
H -2.0104429721832275 -1.1981174945831299 -0.2794116735458374 
H -0.572637140750885 -1.227160930633545 0.7888301610946655 
