15

C -2.2130773067474365 -0.9516308307647705 -1.0018274784088135 
C -0.05641941726207733 0.5980426669120789 0.18497909605503082 
O -0.9488399028778076 1.5234102010726929 -0.29439491033554077 
C 1.082633376121521 0.8231415152549744 1.1540420055389404 
C 1.7838237285614014 -0.40389055013656616 0.48655712604522705 
C 0.5333347916603088 -0.5662522315979004 -0.41439399123191833 
O 0.2285105139017105 -1.4293116331100464 -1.254905104637146 
H -2.1559884548187256 -1.8730790615081787 -0.4325261116027832 
H -2.6152541637420654 -0.056647397577762604 -0.5409401655197144 
H -2.1190695762634277 -1.001339316368103 -2.0804271697998047 
H -0.5294336676597595 2.4076623916625977 -0.22589197754859924 
H 1.63994300365448 1.767306923866272 1.0174627304077148 
H 0.8346918225288391 0.7199301719665527 2.2216973304748535 
H 2.686309576034546 -0.13222947716712952 -0.07579152286052704 
H 1.9974117279052734 -1.2694213390350342 1.1291049718856812 
