17

C -2.009244680404663 -0.3513350784778595 0.6336219310760498 
C -1.4511991739273071 0.3757792115211487 -0.5744823813438416 
O -1.23470139503479 1.6292325258255005 -0.5266864895820618 
C 0.5572764277458191 -0.7620171308517456 -0.5746498107910156 
C 1.5517362356185913 0.22266459465026855 -0.5935715436935425 
C 1.9068102836608887 -0.2850053906440735 0.7971567511558533 
O 0.7762300372123718 -1.2201156616210938 0.7387888431549072 
H -2.9977643489837646 0.06878859549760818 0.8757699131965637 
H -2.1230783462524414 -1.426356554031372 0.4407202899456024 
H -1.3588204383850098 -0.22213077545166016 1.5075349807739258 
H -1.6566846370697021 -0.07792928814888 -1.564193844795227 
H 0.154831662774086 1.9502052068710327 -0.40863850712776184 
H 0.15249544382095337 -1.4475116729736328 -1.3155368566513062 
H 2.1971652507781982 0.5202143788337708 -1.4155776500701904 
H 0.9468022584915161 1.6049655675888062 -0.4107411503791809 
H 1.8148272037506104 0.4002208709716797 1.6471425294876099 
H 2.848813772201538 -0.8469573855400085 0.8287918567657471 
