13

C -0.8848435282707214 1.3784551620483398 0.23442569375038147 
C -0.2793356776237488 0.012074084021151066 0.18493610620498657 
C 1.6698369979858398 -0.6587125062942505 -0.28569599986076355 
N 0.9593152403831482 -0.2577829360961914 0.7850819230079651 
C -0.970342218875885 -1.1174204349517822 -0.42387786507606506 
O -1.9683794975280762 -1.0180187225341797 -1.1516119241714478 
H -1.2839080095291138 1.5875154733657837 1.2420953512191772 
H -1.7001539468765259 1.4338104724884033 -0.4960869550704956 
H -0.1621222198009491 2.1780834197998047 0.002836745698004961 
H 1.7467632293701172 -0.028261972591280937 -1.1756117343902588 
H 2.102393627166748 -1.6658698320388794 -0.33059316873550415 
H 1.2670942544937134 0.2477603256702423 1.6088544130325317 
H -0.49631819128990173 -2.09163236618042 -0.1947525292634964 
