10

N -0.17241184413433075 1.6114394664764404 -0.8273343443870544 
C -0.46013206243515015 0.2618604302406311 -0.16899648308753967 
N 0.8146563172340393 0.19387252628803253 0.18191343545913696 
C 1.030780553817749 -1.7347795963287354 0.8027346134185791 
N 0.9210346341133118 -2.376542806625366 -0.19430463016033173 
N -1.5704774856567383 -0.3625980317592621 -0.09778515249490738 
H 0.07918041944503784 2.3204023838043213 -0.14684560894966125 
H 0.3939550220966339 1.5201963186264038 -1.6494150161743164 
H 1.3105299472808838 -1.6532021760940552 1.8462305068969727 
H -2.3471155166625977 0.21935167908668518 0.25380271673202515 
