13

C -1.4962338209152222 0.1256822794675827 -0.33076077699661255 
C -0.27412766218185425 -0.3345586061477661 0.4444516897201538 
O -0.1847933977842331 -1.7882580757141113 0.48805883526802063 
C 1.1844788789749146 1.0633411407470703 -0.14723537862300873 
O 0.8977345824241638 2.1894335746765137 0.12750539183616638 
N 1.9992674589157104 0.17791278660297394 -0.6565855145454407 
H -1.599111795425415 1.216888427734375 -0.30080321431159973 
H -2.4101531505584717 -0.3246401250362396 0.08725327998399734 
H -1.4233605861663818 -0.17377564311027527 -1.3892275094985962 
H -0.291526198387146 -0.025262661278247833 1.4930946826934814 
H -0.3471153974533081 -2.1043050289154053 -0.42340269684791565 
H 0.9980401992797852 -0.4909636974334717 -0.15696582198143005 
H 2.9181289672851562 0.4787357449531555 -1.024873971939087 
