14

C -1.8426451683044434 0.5815147757530212 -0.41424912214279175 
C -0.48051944375038147 0.14962300658226013 0.07163453102111816 
C 0.5747132301330566 1.0085651874542236 0.4637177586555481 
N 1.7338922023773193 0.3055717945098877 0.4090700149536133 
C 1.5937708616256714 -1.0658587217330933 -0.06672631949186325 
O 2.5426948070526123 -1.8447433710098267 -0.1809568554162979 
C 0.1786615401506424 -1.15762197971344 -0.29815396666526794 
H -1.8055702447891235 0.8177708387374878 -1.4870436191558838 
H -2.1936488151550293 1.469534158706665 0.1281689554452896 
H -2.5832061767578125 -0.21830040216445923 -0.2763139307498932 
H 0.5223311185836792 2.047339916229248 0.7676315307617188 
H 2.635603189468384 0.6412096619606018 0.7357256412506104 
H -0.5104050636291504 -0.7008522748947144 0.9263983964920044 
H -0.35846611857414246 -2.0169246196746826 -0.6844730377197266 
