14

C -1.466963768005371 0.20546488463878632 1.4936907291412354 
N -0.8891259431838989 1.2054970264434814 0.6815136075019836 
C 0.45377597212791443 0.9023119211196899 0.5023791790008545 
C 0.3733263611793518 -0.04769347980618477 -0.5569143891334534 
C 1.4614243507385254 -0.807994544506073 -1.2617522478103638 
N -0.7450432777404785 0.45157021284103394 -1.3907363414764404 
N -1.5691745281219482 0.9856946468353271 -0.6517077684402466 
H -0.9123589992523193 -0.025665385648608208 2.3987483978271484 
H -2.5581576824188232 0.15857021510601044 1.5297240018844604 
H -0.4477858245372772 -0.8542112708091736 0.2034439891576767 
H 1.0855082273483276 0.7972210049629211 1.3772664070129395 
H 2.0037407875061035 -0.13595233857631683 -1.9488167762756348 
H 1.0340511798858643 -1.6282962560653687 -1.8415710926055908 
H 2.1767826080322266 -1.2065166234970093 -0.5352680683135986 
