16

C -1.224170446395874 -1.78252375125885 0.35082584619522095 
C -0.21781370043754578 -0.5860180854797363 -1.0921313762664795 
N -1.5331896543502808 -0.655225396156311 -0.6195870041847229 
C -1.0711456537246704 0.32146427035331726 0.35870444774627686 
C 0.3209563195705414 0.4333897829055786 -0.18733185529708862 
C 1.6323683261871338 0.6988050937652588 0.468010276556015 
C 1.0470943450927734 1.7395894527435303 -0.4466114938259125 
H -2.143407106399536 -2.077939033508301 0.8976898193359375 
H -0.6922231316566467 -2.675419807434082 -0.01567499339580536 
H 0.1252698302268982 -1.124464988708496 -1.9698052406311035 
H -0.7666622400283813 -0.8843927979469299 1.1881828308105469 
H -1.7233283519744873 1.0467301607131958 0.8440995812416077 
H 1.6308006048202515 0.9041628241539001 1.5422077178955078 
H 2.4910805225372314 0.13091787695884705 0.12331277132034302 
H 0.6310372948646545 2.6478679180145264 -0.006799824070185423 
H 1.493333339691162 1.8630566596984863 -1.435091495513916 
