12

C 1.1232699155807495 -1.116514801979065 -0.9803735613822937 
N -0.12231381982564926 -1.0761523246765137 -0.18159836530685425 
C -0.6025932431221008 -0.0290371123701334 0.48681172728538513 
N 0.09930716454982758 1.1421793699264526 0.5337603092193604 
C -1.3000431060791016 1.3766705989837646 1.204365611076355 
O -2.0437235832214355 2.1325724124908447 0.5704484581947327 
H 1.6991734504699707 -2.0093603134155273 -0.6955083608627319 
H 0.8822081089019775 -1.1689006090164185 -2.0494308471679688 
H 1.7414846420288086 -0.2337879091501236 -0.7825667262077332 
H -0.5523334741592407 -1.9782074689865112 -0.02340703271329403 
H 0.25833794474601746 1.622533917427063 -0.37486687302589417 
H -1.1827740669250488 1.3380043506622314 2.292365550994873 
