16

C -0.8074271082878113 0.0883253663778305 2.5376503467559814 
C -0.4472300708293915 -0.244826540350914 1.1006320714950562 
N -0.7237134575843811 0.7504249811172485 0.17931759357452393 
C 0.2512424886226654 0.7446593046188354 -0.7739287614822388 
O 0.3206442594528198 1.6856770515441895 -1.666576862335205 
C 0.8890047073364258 -0.5080916881561279 -0.8842242956161499 
C 1.0391749143600464 -0.903122067451477 -2.2571167945861816 
H -1.837622046470642 -0.18408770859241486 2.810973644256592 
H -0.6390617489814758 1.1380360126495361 2.7825393676757812 
H -0.13333672285079956 -0.48413795232772827 3.202514410018921 
H -0.6554085612297058 -1.261896014213562 0.8104689121246338 
H -1.5316665172576904 1.3739486932754517 0.15863625705242157 
H 1.5673354864120483 -0.8405648469924927 -0.11078083515167236 
H 1.6610922813415527 -1.7645394802093506 -2.498303174972534 
H 0.25602495670318604 -0.6556248664855957 -2.9612908363342285 
H 0.790947675704956 1.0658199787139893 -2.430511236190796 
