17

C 1.8155248165130615 0.2991955280303955 -0.7329295873641968 
C 0.5117987990379333 0.6020251512527466 -0.1072855219244957 
C 0.11468083411455154 -1.5990290641784668 0.7271056175231934 
C -0.9637437462806702 -1.2327237129211426 -0.13426969945430756 
C -0.8472986221313477 0.7267005443572998 -0.6014469861984253 
C -1.1158052682876587 1.4357779026031494 0.7018558382987976 
O 0.35887598991394043 1.2884533405303955 1.029236078262329 
H 2.5923821926116943 0.12268562614917755 0.016294818371534348 
H 1.7084977626800537 -0.5831118226051331 -1.3738833665847778 
H 2.09283709526062 1.1593977212905884 -1.3720982074737549 
H 0.9182911515235901 -2.2254040241241455 0.34316307306289673 
H -0.028105618432164192 -1.596457839012146 1.8058369159698486 
H -1.9816275835037231 -1.171461820602417 0.266880601644516 
H -0.9511896371841431 -1.6185243129730225 -1.159369707107544 
H -1.141157865524292 1.0519272089004517 -1.597856879234314 
H -1.6606323719024658 0.85438072681427 1.4684972763061523 
H -1.4168728590011597 2.4903125762939453 0.7174506187438965 
