15

C -1.0996135473251343 -0.10679998248815536 1.0498745441436768 
C -0.39164119958877563 -0.6431194543838501 -0.1624019593000412 
C -0.9935324192047119 -0.18885542452335358 -1.4730256795883179 
N 1.104640007019043 0.06118634715676308 -0.20973724126815796 
C 1.9217948913574219 0.3906893730163574 0.946994423866272 
O 1.7842305898666382 -0.14030121266841888 2.028512716293335 
H -2.131500005722046 -0.48898717761039734 1.0343369245529175 
H -1.1550008058547974 1.0083348751068115 1.0701099634170532 
H -0.6364096999168396 -0.43009141087532043 1.9907397031784058 
H 1.279115080833435 -0.9441627860069275 -0.5146396160125732 
H -0.42315560579299927 -0.5223614573478699 -2.3554210662841797 
H -1.136688470840454 0.9182400107383728 -1.5593827962875366 
H -1.9890379905700684 -0.6469054818153381 -1.5653893947601318 
H 1.2272957563400269 0.7483308911323547 -0.9709978699684143 
H 2.7191553115844727 1.1165058612823486 0.6896495223045349 
