12

O 0.7259200215339661 1.8181779384613037 0.177636057138443 
C -0.21577781438827515 0.8032872676849365 -0.027382219210267067 
C 0.08203160762786865 -0.09006938338279724 -1.2481939792633057 
C -0.7229191064834595 -1.5004647970199585 0.5968206524848938 
C -0.19305232167243958 -0.2679865062236786 1.0773545503616333 
O 0.39847543835639954 -0.10198395699262619 2.17275333404541 
H 0.9505452513694763 1.739672064781189 1.1400434970855713 
H -1.239479660987854 1.2059435844421387 -0.1187518909573555 
H 1.1478198766708374 -0.2791941463947296 -1.3556572198867798 
H -0.4125748872756958 0.19274862110614777 -2.186522960662842 
H -0.07946068048477173 -2.3904247283935547 0.7215862274169922 
H -0.44152769446372986 -1.1297062635421753 -0.9496856927871704 
