11

O 0.646781325340271 -1.5300214290618896 1.5936423540115356 
C 0.023329006507992744 -1.183516263961792 0.6196132302284241 
N -1.2078769207000732 0.16428770124912262 0.86472088098526 
C -0.2828083038330078 1.0844393968582153 0.572845458984375 
C 0.9157132506370544 -0.1447966992855072 -0.46799004077911377 
C 1.2170482873916626 -0.030460448935627937 -1.6780158281326294 
H -0.6314368844032288 -1.7238399982452393 -0.06294399499893188 
H -1.9009264707565308 0.022581320255994797 0.12322790920734406 
H -0.4646569490432739 1.9204548597335815 -0.10647043585777283 
H 0.5409568548202515 1.2329318523406982 1.2743228673934937 
H 1.1438769102096558 0.1879398375749588 -2.732952356338501 
