13

O -2.4755704402923584 -1.8636122941970825 0.6099197864532471 
C -1.9969278573989868 -0.7943976521492004 0.324296772480011 
N -0.9292702078819275 -0.018884951248764992 0.5170375108718872 
C -0.4519258439540863 0.02160840667784214 -0.8771342039108276 
C 1.3717178106307983 0.8840517401695251 -0.04582805559039116 
C 1.0532621145248413 0.09134694188833237 1.056111454963684 
H -1.6769037246704102 -0.5947214961051941 -1.2073301076889038 
H -0.5439939498901367 0.9664989709854126 -1.4189255237579346 
H 0.20451787114143372 -0.7334696054458618 -1.3155702352523804 
H 1.2346794605255127 1.9662641286849976 0.04467586427927017 
H 2.092726230621338 0.5406591296195984 -0.795827329158783 
H 1.299181342124939 -0.9685512185096741 1.0680755376815796 
H 0.8185073137283325 0.5032078623771667 2.040498733520508 
