17

O -2.1828532218933105 -0.7897670865058899 2.387850046157837 
C -2.0830881595611572 0.2972457706928253 1.8407495021820068 
C -1.1064077615737915 0.6120342016220093 0.7141198515892029 
C -0.36774393916130066 -0.6191169023513794 0.14184585213661194 
C 0.6660670638084412 -0.253099262714386 -0.8629341125488281 
C 1.9811432361602783 0.43769678473472595 -0.701274037361145 
C 1.850026249885559 -0.8704233765602112 -1.4334895610809326 
H -2.654205560684204 1.1751765012741089 2.212693214416504 
H -0.37415656447410583 1.3439955711364746 1.0964043140411377 
H -1.6653525829315186 1.12037992477417 -0.08815500140190125 
H 0.15057189762592316 -1.1387155055999756 0.960036039352417 
H -1.0932304859161377 -1.3391757011413574 -0.26433926820755005 
H -0.355551153421402 0.3650366961956024 -1.8483636379241943 
H 2.223846912384033 1.3392831087112427 -1.28119957447052 
H 2.3380038738250732 0.469268798828125 0.3336699306964874 
H 0.4627445340156555 -0.28711414337158203 -2.0920767784118652 
H 2.2101850509643555 -1.8627052307128906 -1.1155363321304321 
