11

N -1.9681591987609863 -0.40544605255126953 -0.11423549801111221 
C -0.6755865216255188 -0.43936678767204285 0.2269597351551056 
N 0.25572994351387024 -1.404515027999878 0.3808146119117737 
N 1.389267921447754 -0.6997755765914917 0.02324358932673931 
C 1.2439794540405273 0.6010134220123291 -0.27986863255500793 
C -0.13987897336483002 0.9143228530883789 -0.03266903758049011 
H -1.4551723003387451 0.8720185160636902 -0.5495960712432861 
H -2.6273536682128906 -1.1135886907577515 0.23303158581256866 
H 2.246587038040161 -1.2381685972213745 -0.06946417689323425 
H 2.1012070178985596 1.2104945182800293 -0.5425924062728882 
H -0.34466761350631714 1.6934565305709839 0.710925281047821 
