14

C -0.9483819603919983 -0.15103398263454437 1.46247136592865 
C -1.078196406364441 0.25265708565711975 -0.9228935241699219 
O -0.2386515736579895 1.328326940536499 -1.059895396232605 
C 0.286128968000412 -0.0698910728096962 -1.3063377141952515 
C 1.202919840812683 -0.5160325169563293 -0.21903568506240845 
O 2.2082135677337646 0.33774271607398987 0.15999121963977814 
H -1.643818974494934 -0.9923080205917358 1.4409070014953613 
H -1.519872784614563 0.776032567024231 1.4731731414794922 
H -0.3246893286705017 -0.18598656356334686 2.374788284301758 
H -2.103276014328003 0.18928860127925873 -1.284355878829956 
H 0.5264384150505066 -0.2669861316680908 -2.355283498764038 
H 0.09317837655544281 -0.3727291524410248 0.7495039105415344 
H 1.548793911933899 -1.5508227348327637 -0.3098572790622711 
H 1.991214394569397 1.221742033958435 -0.20317602157592773 
