14

C 0.27033865451812744 -1.7628562450408936 -0.25746405124664307 
C 0.2359602153301239 -0.2851710319519043 0.06672581285238266 
C -0.8677912354469299 0.3371325433254242 0.9030444622039795 
C -0.2613197863101959 1.969420313835144 -0.5787031650543213 
C 0.5931181907653809 0.8055399060249329 -0.8804023265838623 
O 1.514306664466858 0.3617955148220062 0.2261996865272522 
H 0.42512279748916626 -2.338843822479248 0.670420229434967 
H 1.0893728733062744 -1.980220079421997 -0.9486435651779175 
H -0.6742554306983948 -2.0878899097442627 -0.7062200903892517 
H -0.5689555406570435 0.7003491520881653 1.9019644260406494 
H -1.786576509475708 -0.25462082028388977 0.9700655341148376 
H -1.2725385427474976 1.3080095052719116 0.2691139876842499 
H 0.21538814902305603 2.596224546432495 0.206312358379364 
H 1.087829351425171 0.6311307549476624 -1.8424131870269775 
