14

C 0.03174535557627678 -0.5525156259536743 1.6743524074554443 
C 0.544491171836853 -1.1003673076629639 0.372542142868042 
C -0.44760793447494507 -0.9484096765518188 -0.732541561126709 
C 0.4572862982749939 0.2575719952583313 -1.0309796333312988 
C -0.11555418372154236 1.6398141384124756 -0.8053289651870728 
O 0.49160730838775635 2.630422592163086 -1.2070738077163696 
H -0.3207148015499115 -1.4560548067092896 2.200316905975342 
H 0.8043631911277771 -0.09875921159982681 2.308429479598999 
H -0.8421360850334167 0.1400783360004425 1.639186143875122 
H 1.3528727293014526 0.023893339559435844 -0.2586355209350586 
H -1.4766877889633179 -0.6473516821861267 -0.4788426160812378 
H -0.4258356988430023 -1.7243154048919678 -1.5062775611877441 
H 0.9775440096855164 0.1829284131526947 -1.9971760511398315 
H -1.0313737392425537 1.6530647277832031 -0.17797113955020905 
