14

C 1.9546066522598267 0.43857115507125854 0.14242058992385864 
O 1.0144391059875488 -0.6340556740760803 0.3686171770095825 
C -0.2941054403781891 -0.35631662607192993 0.163751021027565 
C -1.197558879852295 -1.4914791584014893 0.5567963719367981 
C -0.7638441920280457 0.8487280607223511 -0.411895751953125 
C -1.13041353225708 2.0967907905578613 -0.5042641758918762 
H 1.9945013523101807 0.6788905262947083 -0.929359495639801 
H 2.9188594818115234 0.04857386648654938 0.4808051586151123 
H 1.6720942258834839 1.3349008560180664 0.703046441078186 
H -0.7027794122695923 -0.006929557304829359 -1.2981683015823364 
H -2.1968159675598145 -1.3442882299423218 0.1340719312429428 
H -0.7938348054885864 -2.4603874683380127 0.23140573501586914 
H -1.2899901866912842 -1.5148712396621704 1.654177188873291 
H -1.3748195171356201 2.5302257537841797 -1.4807188510894775 
