8

O -2.1049716472625732 -1.1075963973999023 -0.02949324995279312 
C -1.0205883979797363 -0.6777641177177429 0.047044191509485245 
C -0.4215458929538727 1.0307589769363403 -0.26126372814178467 
O -1.2272717952728271 1.8574509620666504 -0.5697240233421326 
C 0.9773219227790833 0.8504599332809448 -0.019295820966362953 
C 1.4432878494262695 -0.30756357312202454 0.31943127512931824 
H 0.23098832368850708 -1.093437910079956 0.32964062690734863 
H 2.3842835426330566 -0.7819656729698181 0.5664846897125244 
