14

O 2.032663106918335 -0.6630885004997253 -1.2098907232284546 
C 1.160976767539978 0.22305084764957428 -0.9404411315917969 
C 0.6185522079467773 0.438576340675354 0.5086305141448975 
C -0.4133090674877167 -0.37795668840408325 -1.0343643426895142 
N -1.0769864320755005 -0.39397501945495605 0.3991871774196625 
C -0.736466646194458 1.0601760149002075 0.7446455359458923 
C 0.1627529114484787 -0.8248474597930908 1.1950383186340332 
H 1.1469545364379883 1.216096043586731 -1.4565751552581787 
H -1.0401700735092163 0.2389388531446457 -1.6852473020553589 
H -0.29790547490119934 -1.405594825744629 -1.3806642293930054 
H -1.1131879091262817 1.8088194131851196 0.0406552217900753 
H -0.9895514249801636 1.2860852479934692 1.7840402126312256 
H -0.03221335634589195 -0.7675454020500183 2.2681758403778076 
H 0.629277765750885 -1.7574598789215088 0.8679211735725403 
