16

C 1.7690356969833374 1.0066014528274536 0.44244012236595154 
C 1.087421178817749 -0.32607388496398926 0.4942479729652405 
C -0.39306002855300903 -0.4247058033943176 0.9198275804519653 
C -0.9623535871505737 -1.1910115480422974 -0.3179982900619507 
C -0.5726065635681152 0.14160344004631042 -1.0221076011657715 
C -1.0089669227600098 0.853525698184967 0.2811530828475952 
N 0.9440611004829407 0.009519943967461586 -0.9789350628852844 
H 2.820340394973755 0.7661335468292236 0.16167473793029785 
H 1.2913118600845337 1.1585314273834229 -0.8638947010040283 
H 1.68048095703125 -1.2327134609222412 0.6483338475227356 
H -0.599982500076294 -0.7283639311790466 1.9508628845214844 
H -0.4485454559326172 -2.1034834384918213 -0.6485251784324646 
H -2.04787278175354 -1.3407292366027832 -0.27584755420684814 
H -0.9114053845405579 0.4281666874885559 -2.0224554538726807 
H -0.5581866502761841 1.821610689163208 0.5176073312759399 
H -2.099473237991333 0.8816843628883362 0.38458433747291565 
