13

N -2.3300654888153076 -0.6907185316085815 0.29735419154167175 
C -1.0766685009002686 -0.02305861935019493 0.11277782171964645 
C -1.0560612678527832 1.335689902305603 0.06075514480471611 
C 1.2696272134780884 1.1570173501968384 -0.166609987616539 
C 1.2377779483795166 -0.197003573179245 -0.11287765204906464 
O 2.3096115589141846 -1.0467147827148438 -0.13345685601234436 
N 0.031243354082107544 -0.8520482778549194 -0.03104308620095253 
H -2.7951712608337402 -0.8633849024772644 -0.5991712212562561 
H -2.9586739540100098 -0.12467334419488907 0.8685855269432068 
H 0.2948254346847534 1.780269742012024 -0.17313559353351593 
H 2.153745174407959 1.7801765203475952 -0.2668841481208801 
H 3.114863395690918 -0.49689996242523193 -0.1448632776737213 
H -0.014358656480908394 -1.8099545240402222 0.30373111367225647 
