19

C 1.4595606327056885 -1.7009402513504028 -0.4623386561870575 
C 0.8003487586975098 -0.32497960329055786 -0.49693140387535095 
C 0.7952553033828735 0.52810138463974 -1.6325703859329224 
O -1.1542577743530273 1.0469343662261963 -0.906359851360321 
C -0.9305524826049805 1.0671164989471436 0.47804898023605347 
C -1.9867222309112549 0.21875420212745667 1.2019927501678467 
C 0.5539676547050476 0.5270358920097351 0.7433607578277588 
H 2.1999545097351074 -1.7534453868865967 0.3509289622306824 
H 1.9850373268127441 -1.9067330360412598 -1.4046189785003662 
H 0.7269310355186462 -2.4963181018829346 -0.2806425988674164 
H -0.3978148102760315 -0.3564359247684479 -0.8585057258605957 
H 0.6656565070152283 0.11170253157615662 -2.631723642349243 
H 1.1238278150558472 1.566503643989563 -1.5845916271209717 
H -0.9745644330978394 2.1081278324127197 0.8476817011833191 
H -2.9841978549957275 0.6653113961219788 1.0737216472625732 
H -2.011101007461548 -0.8059260249137878 0.8112104535102844 
H -1.7726867198944092 0.17663845419883728 2.2829067707061768 
H 1.2492499351501465 1.3797208070755005 0.7975159287452698 
H 0.6521078944206238 -0.05116933211684227 1.6709145307540894 
