11

C -1.3860983848571777 0.6158633232116699 0.07675117999315262 
C -0.4077034294605255 -0.3983367085456848 -0.48094528913497925 
O 0.6173204183578491 -0.014101463370025158 -1.1555981636047363 
C 2.1578609943389893 -0.162589430809021 -0.19377021491527557 
O 3.166273355484009 0.09922309219837189 -0.7030706405639648 
H -2.040144443511963 0.9700524210929871 -0.7362107038497925 
H -2.0214273929595947 0.17368388175964355 0.8553584814071655 
H -0.8498136401176453 1.4823650121688843 0.4817904829978943 
H -0.8149226307868958 -1.4038097858428955 -0.6930798888206482 
H 0.25202223658561707 -0.8878064155578613 0.8820404410362244 
H 1.1140185594558716 -0.7379739284515381 0.8637893199920654 
