17

C -1.6105175018310547 0.7649444937705994 0.6573008894920349 
C -1.1901500225067139 -0.36543697118759155 -0.2630702555179596 
C -0.022838501259684563 -0.1931656152009964 -1.1920322179794312 
C 1.000151515007019 0.7973520159721375 -1.0383132696151733 
C -0.21173082292079926 -1.4057554006576538 0.26181524991989136 
C 0.7639691829681396 -1.0436018705368042 1.1713366508483887 
C 1.7917155027389526 -0.26222482323646545 1.2249590158462524 
H -2.3190250396728516 0.39820197224617004 1.4111559391021729 
H -0.7526192665100098 1.2063699960708618 1.1929253339767456 
H -2.098717451095581 1.5769267082214355 0.10062731057405472 
H -2.044377565383911 -0.8260987997055054 -0.7624910473823547 
H 0.027067963033914566 -0.8608056902885437 -2.050766944885254 
H 1.7783068418502808 0.34388917684555054 0.04655875638127327 
H 0.7249916195869446 1.7661007642745972 -0.6215498447418213 
H 1.7501978874206543 0.8437499403953552 -1.8342136144638062 
H -0.32072868943214417 -2.437638521194458 -0.0759001299738884 
H 2.7343053817749023 -0.30280718207359314 1.771658182144165 
