10

C -1.5223888158798218 0.6893530488014221 -0.25860342383384705 
C -0.3334861099720001 -0.08116352558135986 -0.005723532289266586 
N 0.6906554698944092 0.6484778523445129 -0.4890187084674835 
O 1.8788288831710815 0.05664064362645149 0.07575707137584686 
C 1.3814438581466675 -1.1123179197311401 0.5727819800376892 
N 0.0873740166425705 -1.2549664974212646 0.5894685387611389 
H -2.241481304168701 0.835888683795929 0.5457606315612793 
H -1.9834712743759155 0.5117148756980896 -1.23846435546875 
H -0.08678971976041794 1.5599026679992676 -0.6361631155014038 
H 2.12931489944458 -1.8535295724868774 0.8442049622535706 
