11

O 2.5906267166137695 -0.9307303428649902 0.034526143223047256 
C 1.384357213973999 -0.5421698689460754 0.007037550676614046 
N 0.5896020531654358 -1.5980085134506226 -0.09347230941057205 
C -1.3135977983474731 -0.24241873621940613 -0.10820532590150833 
C -0.47586899995803833 0.9763184189796448 0.07889025658369064 
C 0.8627669811248779 0.8405518531799316 0.08420554548501968 
H -0.644757091999054 -1.2113136053085327 0.2287108153104782 
H -2.188098430633545 -0.3180926740169525 0.5540047287940979 
H -1.5876176357269287 -0.4523148238658905 -1.148586392402649 
H -0.9715913534164429 1.9409223794937134 0.20775972306728363 
H 1.566231369972229 1.6662378311157227 0.17638929188251495 
