9

N 0.9555991888046265 -1.9209821224212646 -0.10530038177967072 
C -0.03795437142252922 -1.1701196432113647 -0.11242437362670898 
O -0.15415258705615997 0.702049732208252 1.3517706394195557 
C 0.2531253397464752 1.3318592309951782 0.3797645568847656 
O 0.3128567636013031 1.8591805696487427 -0.6387021541595459 
C -1.0337368249893188 -1.0330262184143066 -1.1613892316818237 
N -1.7353962659835815 -0.7332332730293274 -2.0697884559631348 
H 1.7533780336380005 -1.6776533126831055 0.4681713283061981 
H -0.31371933221817017 2.6419243812561035 1.8878982067108154 
