12

N 0.49024030566215515 2.8952817916870117 0.28756532073020935 
C 0.4210415780544281 1.8263607025146484 -0.17828413844108582 
C 0.3147660493850708 0.42210814356803894 -0.6049239635467529 
C 0.8710213899612427 -0.6025846004486084 0.43122637271881104 
N -0.3244919776916504 -1.1069388389587402 1.1519216299057007 
C -1.4274029731750488 -0.716463565826416 0.46159127354621887 
N -1.0799334049224854 -0.049992144107818604 -0.7025423049926758 
H 0.8120988011360168 0.3263128995895386 -1.5819634199142456 
H 1.572927713394165 -0.1616194248199463 1.1478739976882935 
H 1.3968400955200195 -1.4280202388763428 -0.07710255682468414 
H -1.2446764707565308 -1.9431397914886475 0.7573153376579285 
H -1.8024314641952515 0.5386946797370911 -1.0926774740219116 
