10

O -1.4797781705856323 1.7240824699401855 -0.044304002076387405 
C -0.8423367142677307 0.678770124912262 0.1491895616054535 
C -0.8848389387130737 -0.7321374416351318 -0.4141087234020233 
N 0.26425108313560486 -1.3681426048278809 -0.5331238508224487 
C 1.2521240711212158 -0.4684714674949646 -0.21732264757156372 
N 0.8183140158653259 0.6854915022850037 0.21646416187286377 
H -0.9256892204284668 0.17257066071033478 1.22013521194458 
H -1.8309085369110107 -1.2733745574951172 -0.4758135974407196 
H 2.3008415699005127 -0.7565650939941406 -0.2802497446537018 
H 1.3945738077163696 1.4714244604110718 0.5055027008056641 
