13

C -1.212349772453308 0.6831141114234924 -0.8123219609260559 
N -0.5749346613883972 0.668738603591919 0.4655446410179138 
C 0.7993710041046143 1.0495264530181885 0.31885838508605957 
C 1.5294746160507202 -0.08880472928285599 0.35812705755233765 
C 0.5364278554916382 -1.196512222290039 0.3059012293815613 
C -0.6401311159133911 -0.6474469900131226 0.9280462265014648 
H -1.031111240386963 1.544656753540039 -1.456345796585083 
H 0.0030206230003386736 -0.8785335421562195 -0.9140928983688354 
H -2.2574620246887207 0.3464598059654236 -0.7744602560997009 
H 1.0359611511230469 2.0886054039001465 0.0963505208492279 
H 2.6104609966278076 -0.17325633764266968 0.2729680836200714 
H 0.8168205618858337 -2.251946210861206 0.3522431254386902 
H -1.6155483722686768 -1.1446013450622559 0.8591817021369934 
