14

C 1.9130523204803467 0.7070827484130859 0.6269388198852539 
C -0.07092951983213425 -0.8254738450050354 0.7952839136123657 
C -0.8313241600990295 0.19399628043174744 0.15779048204421997 
N -0.5795972347259521 1.5079466104507446 0.3536616563796997 
C -1.552493691444397 -0.4779142737388611 -0.9338560700416565 
C -1.0771632194519043 -1.7450294494628906 -0.9642826914787292 
O -0.06242606043815613 -1.9125407934188843 -0.020341433584690094 
H 2.388425827026367 0.980414628982544 1.579438328742981 
H 2.242095470428467 1.3898460865020752 -0.17243167757987976 
H 2.2105493545532227 -0.31969377398490906 0.3773440420627594 
H -1.4351527690887451 2.040165901184082 0.1562219113111496 
H 0.7839634418487549 1.2181888818740845 0.8245837688446045 
H -2.4167866706848145 -0.06656591594219208 -1.4658328294754028 
H -1.5122129917144775 -2.690423011779785 -1.3145180940628052 
