13

N 1.044805645942688 -0.23267340660095215 -1.549463152885437 
C 0.41831305623054504 -0.04305826872587204 -0.3535964787006378 
O 1.222354531288147 0.19700311124324799 1.0008569955825806 
C -0.6256564259529114 -1.0609078407287598 0.13410809636116028 
O -0.9554919004440308 -0.5456191301345825 1.428467035293579 
C -0.24939149618148804 0.6565775871276855 1.3312140703201294 
N -0.4273250699043274 1.4229644536972046 -0.002906844485551119 
H 0.9176185131072998 0.5467284321784973 -2.1968250274658203 
H 2.0470361709594727 -0.4073355495929718 -1.429954171180725 
H -1.5130902528762817 -1.0871771574020386 -0.5291026830673218 
H -0.19325916469097137 -2.068542957305908 0.20722666382789612 
H -0.2850709557533264 1.2715997695922852 2.2264411449432373 
H -1.4008429050445557 1.3504409790039062 -0.2664659023284912 
