10

O 1.7829551696777344 -1.7379088401794434 -1.47306227684021 
C 1.198258399963379 -0.613756537437439 -1.39451265335083 
C 0.3511088788509369 -0.21692641079425812 -0.27339497208595276 
N 0.674748957157135 0.20680084824562073 0.9253224730491638 
C -0.461703896522522 0.761892557144165 1.4561947584152222 
C -1.5064717531204224 0.4465579390525818 0.6192561984062195 
O -1.0265074968338013 -0.16887600719928741 -0.49912166595458984 
H 1.9916925430297852 -0.7817189693450928 -2.301537036895752 
H -0.4252467751502991 1.4674618244171143 2.281261920928955 
H -2.578833818435669 0.6364734768867493 0.6595935225486755 
