14

O -1.4236112833023071 2.1642191410064697 -0.47894012928009033 
C -0.7575991153717041 1.1966354846954346 -0.15810413658618927 
C 0.7373664379119873 1.1684341430664062 0.21626658737659454 
C 1.4111555814743042 -0.03623560443520546 -0.366090327501297 
C 0.8601750731468201 -1.2591339349746704 -0.047225117683410645 
C -0.5737113952636719 -1.4551876783370972 0.1672343611717224 
N -1.3834152221679688 -0.09493446350097656 -0.0021932641975581646 
H 1.198278784751892 2.112250566482544 -0.088802769780159 
H 0.7709169387817383 1.1230344772338867 1.325150489807129 
H 2.2627339363098145 0.036237120628356934 -1.037697672843933 
H 1.391252040863037 -2.1785964965820312 -0.3345048427581787 
H -0.8462455868721008 -1.9158132076263428 1.139782428741455 
H -1.3999428749084473 -0.7991947531700134 -0.8905825614929199 
H -2.2473535537719727 -0.0617147758603096 0.5557069778442383 
