14

C -1.8216633796691895 -0.21555519104003906 0.42135655879974365 
C -0.34505394101142883 -0.33211275935173035 0.8211906552314758 
C 0.5392636060714722 0.5599859356880188 -0.10431651026010513 
C 0.8633176684379578 -0.023492982611060143 -1.4186007976531982 
O 0.235168918967247 1.8158904314041138 -0.20298607647418976 
C 2.046400785446167 0.2939394414424896 0.3959677517414093 
N 3.2374496459960938 0.24167902767658234 0.34657493233680725 
H -2.4686660766601562 -0.7963395118713379 1.093804955482483 
H -2.1441917419433594 0.8307858109474182 0.4666239619255066 
H -1.981988787651062 -0.5750752687454224 -0.6032412052154541 
H 0.004700982477515936 -1.368471384048462 0.7744783759117126 
H -0.186695396900177 0.016903022304177284 1.8471535444259644 
H 0.6008514761924744 -1.0387654304504395 -1.7197041511535645 
H 1.4211057424545288 0.5906288623809814 -2.1183018684387207 
