14

C 1.4674729108810425 0.6588225960731506 0.2593974173069 
N 0.4535030722618103 -0.33115166425704956 -0.12808509171009064 
C 0.9066206812858582 -1.5111026763916016 -0.7533209919929504 
O 2.0440754890441895 -1.9037646055221558 -0.6206759810447693 
C -0.8878199458122253 -0.0345732755959034 -0.1478392779827118 
O -1.5793496370315552 -0.2850325107574463 -1.2306900024414062 
C -1.6805485486984253 0.6565307378768921 0.8271231055259705 
H 2.013317346572876 1.013232946395874 -0.6286413073539734 
H 1.00513756275177 1.5150585174560547 0.7419803142547607 
H 2.1702239513397217 0.17388537526130676 0.9495767951011658 
H 0.1600433886051178 -1.8804689645767212 -1.4879809617996216 
H -2.5335326194763184 0.08000344783067703 1.2009437084197998 
H -2.3087782859802246 0.5673679113388062 -0.5857654809951782 
H -1.2303657531738281 1.2811919450759888 1.6039780378341675 
