12

O 0.3372446298599243 -2.650960683822632 -0.31721264123916626 
C 0.17929381132125854 -1.6087040901184082 0.3471677303314209 
C 1.040734887123108 -0.38039273023605347 0.010631229728460312 
C 0.4508054256439209 0.4884916841983795 -1.0813672542572021 
N 0.38746294379234314 0.9057217240333557 0.3367544114589691 
C -0.7503497004508972 0.907460629940033 1.0654323101043701 
O -1.854573130607605 0.1812995821237564 0.8861569762229919 
H -1.630947232246399 -0.5309126377105713 0.20305673778057098 
H 2.1266062259674072 -0.4060511589050293 0.11264432221651077 
H 1.175182580947876 1.0603842735290527 -1.6729329824447632 
H -0.5025955438613892 0.22612452507019043 -1.5375715494155884 
H -0.958864688873291 1.8075389862060547 1.6472405195236206 
