12

C -1.1902828216552734 0.5716522932052612 0.9391469955444336 
C -0.5647525787353516 -0.7745903730392456 0.7439137101173401 
O 1.2222247123718262 -0.8210999965667725 1.0264458656311035 
C 0.5054861307144165 -0.9402209520339966 -0.2792690694332123 
C 0.8830677270889282 0.1405484527349472 -1.168613076210022 
C 1.0554684400558472 0.9341894388198853 -2.0854992866516113 
H -0.6947000026702881 1.198277473449707 1.6826289892196655 
H -1.2592827081680298 1.1423330307006836 -0.004242197144776583 
H -2.227632999420166 0.39373084902763367 1.2658472061157227 
H 0.45065397024154663 -1.4269108772277832 1.5722007751464844 
H 0.6125785112380981 -1.9357308149337769 -0.7232704758644104 
H 1.2071717977523804 1.5178215503692627 -2.9692893028259277 
