14

C -2.173511266708374 -0.09580599516630173 -0.19147561490535736 
C -0.8118861317634583 -0.14826904237270355 -0.7838993072509766 
C 1.0126723051071167 0.8003525733947754 0.8073337078094482 
C 2.135711431503296 0.5292835235595703 0.1306806355714798 
N 1.6607314348220825 -0.5217975378036499 -0.7142875790596008 
C 0.28742682933807373 -0.534692645072937 0.01829122193157673 
O 0.21825651824474335 -1.0573691129684448 1.225618600845337 
H -2.2640633583068848 0.6875765919685364 0.584205150604248 
H -2.392465591430664 -1.044040322303772 0.3288000822067261 
H -2.9407761096954346 0.09813947230577469 -0.9512297511100769 
H -0.607656717300415 0.23461410403251648 -1.7817519903182983 
H 0.5287833213806152 1.3847976922988892 1.5738321542739868 
H 3.1369106769561768 0.9504966735839844 0.1338662952184677 
H 2.1518757343292236 -1.4152590036392212 -0.5694466829299927 
