15

C -1.2971044778823853 -0.8820579648017883 -1.1836704015731812 
C -1.0064750909805298 0.43364837765693665 -0.47755101323127747 
C -1.0056376457214355 0.4408290684223175 1.0483511686325073 
C 0.40000104904174805 0.7093648910522461 -0.12827718257904053 
C 1.6022274494171143 0.150487020611763 -0.3029631972312927 
C 2.729947328567505 -0.12439852952957153 0.5118653178215027 
O 2.8581998348236084 -1.1992161273956299 1.124081015586853 
H -2.3677148818969727 -1.1219987869262695 -1.141966700553894 
H -0.9950491189956665 -0.8198758363723755 -2.2369542121887207 
H -0.7275393605232239 -1.700308918952942 -0.7210900187492371 
H -1.5705060958862305 1.2783088684082031 -0.8936696648597717 
H -0.8006711602210999 -0.4839591383934021 1.5834546089172363 
H 0.34224459528923035 1.3836077451705933 0.8365610241889954 
H -1.505597472190857 1.2436060905456543 1.593489646911621 
H 3.550801992416382 0.6367013454437256 0.4698316752910614 
