13

C -1.012881875038147 1.7816174030303955 0.33638036251068115 
C -0.45014408230781555 0.39740926027297974 0.19052806496620178 
N -1.231961727142334 -0.56715989112854 -0.09251780062913895 
O -0.5810208320617676 -1.8414860963821411 -0.1953505426645279 
C 1.83829927444458 -0.39125868678092957 0.18753020465373993 
O 2.0039896965026855 -0.8826329112052917 -1.048179268836975 
H -2.1044750213623047 1.7719082832336426 0.20163080096244812 
H -0.781569242477417 2.18697190284729 1.332523226737976 
H -0.5678878426551819 2.4607198238372803 -0.40581852197647095 
H -1.3426904678344727 -2.4199328422546387 -0.3968965709209442 
H 1.5397366285324097 -1.1771072149276733 0.9124373197555542 
H 0.9651378393173218 0.49172443151474 0.25961241126060486 
H 1.651352882385254 -1.7959023714065552 -1.1208066940307617 
