14

O -0.6770643591880798 1.010140061378479 1.1130247116088867 
C -1.345549464225769 0.19329549372196198 -0.05480220541357994 
C 0.680082380771637 1.3997122049331665 -0.15330453217029572 
C 1.3754830360412598 0.16008581221103668 -0.46570995450019836 
C 0.7082526087760925 -0.9872800707817078 -0.7009243369102478 
C -0.6709347367286682 -1.1544098854064941 -0.060174986720085144 
H -0.686647355556488 0.42453116178512573 1.9043763875961304 
H -2.398442506790161 0.12287010252475739 0.24574612081050873 
H 0.0361398383975029 1.8383142948150635 -0.9119393825531006 
H 1.176327109336853 2.1123545169830322 0.4981820583343506 
H 2.464168071746826 0.20676924288272858 -0.4458248019218445 
H 1.190194010734558 -1.8254523277282715 -1.2034273147583008 
H -1.2731389999389648 -1.8437355756759644 -0.6871887445449829 
H -0.5788695216178894 -1.657194972038269 0.9219667315483093 
