14

C -1.1292346715927124 -0.8823646306991577 -0.6346359848976135 
C -1.2854961156845093 0.35637277364730835 0.25453025102615356 
C -0.09720149636268616 1.2652616500854492 0.026119252666831017 
C 1.1192176342010498 0.6384087204933167 -0.015762504190206528 
C 1.1986973285675049 -0.7484277486801147 -0.12619109451770782 
O 0.19061122834682465 -1.5186656713485718 -0.5274928212165833 
H -1.8371844291687012 -1.6794596910476685 -0.378629207611084 
H -1.244875192642212 -0.6167573928833008 -1.6943330764770508 
H -2.237257957458496 0.8391724824905396 -0.009168078191578388 
H -1.3604397773742676 0.04703010246157646 1.3113398551940918 
H -0.21948936581611633 2.3422226905822754 -0.07074446231126785 
H 2.140397071838379 0.9627556800842285 0.4844551086425781 
H 2.659242868423462 0.2928674519062042 1.425357460975647 
H 2.123476982116699 -1.3012163639068604 0.03155328333377838 
