10

N 0.6667900681495667 1.8146872520446777 0.13735829293727875 
C 0.22992415726184845 0.505317747592926 0.21445567905902863 
C -0.2757328450679779 -0.23933136463165283 1.2613502740859985 
N -0.7228854298591614 -1.4917011260986328 0.5776629447937012 
C -0.32511553168296814 -1.4224822521209717 -0.6699919104576111 
O 0.3429257869720459 -0.26778149604797363 -0.9644815325737 
H 0.13051272928714752 2.3814380168914795 -0.5259788036346436 
H 1.6695947647094727 1.8965034484863281 -0.017691949382424355 
H -1.3863688707351685 -0.9957053065299988 1.4289981126785278 
H -0.3296447992324829 -2.1809451580047607 -1.441681146621704 
