16

C 0.17069374024868011 -0.3914479613304138 2.075443744659424 
C -0.15601825714111328 -0.890243649482727 0.6596254110336304 
O -1.3806465864181519 -0.37135982513427734 0.13169249892234802 
C 0.8178408741950989 -0.3827373683452606 -0.4259690046310425 
C -0.050072044134140015 0.7218735814094543 -1.026955008506775 
O -0.5055107474327087 1.7337188720703125 -0.31709909439086914 
N -0.1609739065170288 0.824813961982727 -2.3733608722686768 
H 1.0946588516235352 -0.8592545390129089 2.4492621421813965 
H -0.6574196815490723 -0.661496639251709 2.7506155967712402 
H 0.3151569962501526 0.6973062753677368 2.084080457687378 
H -0.21056582033634186 -1.9877337217330933 0.6454150676727295 
H -1.1476713418960571 1.1031105518341064 0.26631778478622437 
H 1.783125400543213 0.022234078496694565 -0.08297178149223328 
H 1.0171754360198975 -1.144939661026001 -1.1886317729949951 
H -0.23899739980697632 -0.030779266729950905 -2.912550926208496 
H -0.6907752156257629 1.6169352531433105 -2.7349135875701904 
