14

C 1.4361841678619385 0.5016213655471802 -1.6116665601730347 
O 0.3772730231285095 -0.5030185580253601 -1.6156302690505981 
C -0.15622732043266296 -0.8964293599128723 -0.4775821268558502 
C -1.1880487203598022 -0.6359258890151978 1.82805335521698 
C -0.8160954117774963 -0.02616061642765999 0.595241129398346 
O -1.4899791479110718 1.134517788887024 0.14338944852352142 
H 1.0519500970840454 1.4547317028045654 -1.247773289680481 
H 1.7551764249801636 0.602761447429657 -2.663996934890747 
H 2.2898802757263184 0.16302980482578278 -1.0079798698425293 
H 0.059083808213472366 -1.9189252853393555 -0.13409750163555145 
H -0.9639631509780884 -0.14823244512081146 2.778947114944458 
H -1.3563951253890991 -1.716988444328308 1.8334661722183228 
H 0.36979612708091736 0.16838887333869934 0.7546639442443848 
H -1.3686350584030151 1.8206294775009155 0.8249652981758118 
