19

C -1.798689603805542 0.5350785255432129 0.3647880554199219 
C -0.3204803466796875 0.969462513923645 0.17525112628936768 
C 0.03584448993206024 1.0540285110473633 -1.33341383934021 
C 0.6148411631584167 0.08939952403306961 0.9851685166358948 
C 1.6623295545578003 -0.7963258624076843 0.3674829602241516 
C 0.6115373969078064 -1.8477962017059326 0.6689698100090027 
O -0.17572179436683655 -2.1084582805633545 -0.4695846140384674 
H -2.465090036392212 1.2299379110336304 -0.15974359214305878 
H -1.961309552192688 -0.4725321829319 -0.029109980911016464 
H -2.06980299949646 0.5701393485069275 1.4300447702407837 
H -0.21578827500343323 1.9873771667480469 0.5854371786117554 
H -0.6362361907958984 1.759876012802124 -1.823875069618225 
H -0.07552352547645569 0.07991213351488113 -1.8233492374420166 
H 1.059316635131836 1.4319185018539429 -1.4767122268676758 
H 0.8422841429710388 0.4690459966659546 1.993233561515808 
H 2.5866482257843018 -0.8832706809043884 0.9581164121627808 
H 1.8758585453033447 -0.6480709314346313 -0.6996196508407593 
H -0.06219323351979256 -1.0492279529571533 1.4474421739578247 
H 0.49217498302459717 -2.370494842529297 -1.1605267524719238 
