12

C 1.0016876459121704 0.6134180426597595 -0.7167443037033081 
C -0.354377806186676 0.5827465057373047 -0.08829622715711594 
C -1.3463530540466309 -0.5318943858146667 -0.1676550954580307 
O -1.365007758140564 -0.6338866949081421 1.2233980894088745 
C 0.5061745643615723 -0.7859426140785217 1.7041515111923218 
O 1.6219264268875122 -1.0638720989227295 1.7838985919952393 
H 0.905436635017395 1.1152058839797974 -1.6896209716796875 
H 1.702170968055725 1.180176854133606 -0.08875410258769989 
H 1.4029704332351685 -0.39058175683021545 -0.879500150680542 
H -0.7894362211227417 1.5270795822143555 0.23235024511814117 
H -2.307274580001831 -0.196409210562706 -0.6088718175888062 
H -0.9779173731803894 -1.4160399436950684 -0.7043559551239014 
