10

N 1.7299835681915283 -0.4826165437698364 -0.19520559906959534 
C 0.6699227690696716 -0.012435506097972393 0.4138336479663849 
C -0.5673154592514038 -0.6891129016876221 0.14156629145145416 
C -1.1610883474349976 0.6771079897880554 0.567776083946228 
O 0.24612894654273987 1.1882706880569458 0.8828226327896118 
H 2.661081075668335 -0.06986069679260254 -0.18723848462104797 
H -0.8601471781730652 -1.5564545392990112 0.7373865246772766 
H 0.6725237965583801 -1.095252513885498 -0.7828109860420227 
H -1.7703238725662231 0.7038551568984985 1.479514479637146 
H -1.570143222808838 1.330177903175354 -0.21252946555614471 
