19

C 1.4167910814285278 1.0051226615905762 0.5712390542030334 
C 0.8599878549575806 -0.38575059175491333 0.2756744623184204 
C 1.7478052377700806 -1.3211324214935303 -0.5355557799339294 
C -0.2990332543849945 -0.498308926820755 -0.7386401295661926 
C -1.7677911520004272 -0.6543100476264954 -0.2537160813808441 
C -2.069472551345825 0.7243689894676208 0.10353858768939972 
O -1.762705683708191 1.1549878120422363 1.3690427541732788 
H 0.6768808960914612 1.617903232574463 1.106765866279602 
H 2.3200204372406006 0.9423930644989014 1.1939306259155273 
H 1.682874083518982 1.5180165767669678 -0.3656446933746338 
H 0.5522164702415466 -0.8731396794319153 1.2131409645080566 
H 2.3769900798797607 -0.8669124841690063 -1.3036071062088013 
H 0.36593392491340637 -1.525743842124939 -1.216048240661621 
H 2.1133980751037598 -2.2467572689056396 -0.0877457857131958 
H -0.19806437194347382 0.2304992973804474 -1.5573112964630127 
H -2.398139715194702 -1.0122578144073486 -1.0769363641738892 
H -1.8305275440216064 -1.3477290868759155 0.5947157144546509 
H -2.23058819770813 1.4795701503753662 -0.6666578650474548 
H -1.605040192604065 2.117321491241455 1.3549312353134155 
