15

C 1.3898980617523193 -0.06788906455039978 -2.448404312133789 
C 0.4329509735107422 0.6441015601158142 -1.554186224937439 
C -0.5436757206916809 0.3861989676952362 -0.7471376657485962 
C -1.4526944160461426 0.5498511791229248 0.365459144115448 
C -1.0734184980392456 0.4163000285625458 1.7799997329711914 
O -1.8596315383911133 0.809413492679596 2.6436073780059814 
C 0.20674525201320648 -0.35550981760025024 2.09651517868042 
H 1.805133581161499 0.6404193639755249 -3.177912473678589 
H 0.9352990388870239 -0.9167828559875488 -2.979860544204712 
H 2.230607271194458 -0.4682420492172241 -1.8628779649734497 
H -2.5273139476776123 0.606093168258667 0.15249097347259521 
H -1.0867985486984253 -0.6352314949035645 -0.8199865221977234 
H 1.070572018623352 0.19898292422294617 1.7090035676956177 
H 0.2928471267223358 -0.44778916239738464 3.185575246810913 
H 0.17947982251644135 -1.3599162101745605 1.6577140092849731 
