13

C -1.5858702659606934 -0.39945095777511597 0.2584085464477539 
C -0.3263236880302429 -0.08949313312768936 -0.5377418994903564 
C 0.5663359761238098 1.0574839115142822 -0.08304548263549805 
C 1.6842572689056396 -0.33175092935562134 0.08326945453882217 
O 2.9131176471710205 -0.34609851241111755 0.15601807832717896 
N 0.7027417421340942 -1.1436893939971924 -0.5194647908210754 
H -2.005868434906006 -1.3669695854187012 -0.045733802020549774 
H -1.3401868343353271 -0.45900195837020874 1.3304977416992188 
H -2.345371723175049 0.38198456168174744 0.11790050566196442 
H -0.5734485983848572 0.04361078888177872 -1.6089235544204712 
H 1.0395216941833496 1.6498167514801025 -0.8706346750259399 
H 0.28939104080200195 1.6657060384750366 0.7843629121780396 
H 1.0740060806274414 -0.4252616763114929 1.0791678428649902 
