12

O 3.138071298599243 -0.014086492359638214 -0.17212407290935516 
C 1.9740214347839355 -0.15256524085998535 -0.5099257230758667 
C 0.8108432292938232 0.2670598030090332 0.31837281584739685 
C -0.3552456796169281 1.0465351343154907 -0.35795679688453674 
N -0.44615837931632996 -0.36626291275024414 -0.08898483216762543 
C -1.4826565980911255 -0.8819743990898132 0.5330629944801331 
O -2.6023168563842773 -0.20163916051387787 0.4672785997390747 
H 1.675659418106079 -0.55572110414505 -1.5109156370162964 
H 0.9946451783180237 0.4183979332447052 1.3853312730789185 
H -0.1657467782497406 1.2252999544143677 -1.4274355173110962 
H -2.2370917797088623 0.738747775554657 0.1999504715204239 
H -1.4598231315612793 -1.814649224281311 1.091435432434082 
