15

C 0.45090946555137634 -1.295324683189392 -2.0858850479125977 
C -0.1131548061966896 -1.2531236410140991 -0.7228031754493713 
O 0.7479113936424255 -0.9050715565681458 0.31126725673675537 
C 0.07042908668518066 0.13000330328941345 0.8325015306472778 
C -0.2488890439271927 1.5186859369277954 0.3365410566329956 
O -0.47109153866767883 1.977802038192749 1.7092368602752686 
C -0.2008202075958252 0.6362915635108948 2.234048843383789 
H 1.3084132671356201 -0.599733293056488 -2.1982312202453613 
H 0.843195378780365 -2.3040964603424072 -2.2909657955169678 
H -0.2711375653743744 -1.027185082435608 -2.869603395462036 
H -1.1417280435562134 -1.4154422283172607 -0.47975847125053406 
H -1.1432708501815796 1.633650541305542 -0.303983211517334 
H 0.5684036016464233 2.075859785079956 -0.15523773431777954 
H 0.6652525663375854 0.6160134673118591 2.9160351753234863 
H -1.0644227266311646 0.21167081594467163 2.7668373584747314 
