15

C -0.1197643131017685 1.896851658821106 -0.008936535567045212 
C -0.07272632420063019 0.38301172852516174 -0.17589491605758667 
C 1.1653691530227661 -0.5033838748931885 0.01909487321972847 
C 0.24066630005836487 -1.750143051147461 -0.052991461008787155 
O -0.5562314987182617 -1.6093381643295288 1.1660898923873901 
C -1.154227375984192 -0.5212650299072266 0.4246075749397278 
C -0.9086789488792419 -1.1778852939605713 -0.9392285346984863 
H -1.1387308835983276 2.266691207885742 -0.15804696083068848 
H 0.20026364922523499 2.1419646739959717 1.0256098508834839 
H 0.5685073733329773 2.3901960849761963 -0.7052863240242004 
H 1.6686739921569824 -0.3847842514514923 0.9928255677223206 
H 1.877461552619934 -0.43149226903915405 -0.8103365898132324 
H 0.651700496673584 -2.7571232318878174 -0.20640844106674194 
H -2.106482982635498 -0.10223770141601562 0.7742575407028198 
H -0.31580042839050293 0.15893803536891937 -1.34535551071167 
