12

O -0.6635571122169495 1.791352391242981 -0.03796480596065521 
C -0.6770374774932861 0.38937851786613464 0.2152724266052246 
C 0.5066787600517273 -0.15599912405014038 1.070790410041809 
C 1.18868088722229 -0.9874790906906128 -0.05423276871442795 
O 1.0539652109146118 -0.15528474748134613 -1.1976836919784546 
C -0.31356701254844666 -0.5090663433074951 -0.9683408141136169 
H 0.09352331608533859 1.9351886510849 -0.6127431392669678 
H -1.6780660152435303 0.16499564051628113 0.6196695566177368 
H 1.1698319911956787 0.6554684638977051 1.4101744890213013 
H 0.1958562135696411 -0.7597513794898987 1.9329923391342163 
H -0.025908084586262703 -1.655135154724121 -0.47863245010375977 
H -0.8504005074501038 -0.7136677503585815 -1.899301528930664 
