16

C 2.28977370262146 0.027165811508893967 0.9182412028312683 
C 1.2730263471603394 -0.7837549448013306 0.1273207813501358 
C 0.4563566744327545 -0.11212965846061707 -1.4218599796295166 
C -0.0505962073802948 -0.19192929565906525 -0.19389186799526215 
C -1.2751203775405884 0.14831313490867615 0.5794520974159241 
C -2.457850694656372 0.558138906955719 -0.31186962127685547 
H 2.323025703430176 1.0552064180374146 0.5338451862335205 
H 2.0024731159210205 0.07035321742296219 1.979686975479126 
H 3.296751022338867 -0.40795043110847473 0.8520800471305847 
H 1.630018949508667 -0.7095572352409363 -1.1052769422531128 
H 1.282879114151001 -1.870548963546753 0.2870974838733673 
H -1.036046028137207 0.961022675037384 1.2871772050857544 
H -1.5538181066513062 -0.7150468826293945 1.2064927816390991 
H -2.748767614364624 -0.27015140652656555 -0.9715656042098999 
H -3.3261117935180664 0.8363109827041626 0.300843745470047 
H -2.1918609142303467 1.4148857593536377 -0.9451894164085388 
