15

C 0.01804526336491108 1.359269380569458 -0.6466545462608337 
C -1.426700234413147 0.8736300468444824 -0.3574204742908478 
C -0.922015368938446 -0.4802773594856262 0.9863577485084534 
O 0.3887971043586731 -0.4862442910671234 1.5244179964065552 
C 1.3367716073989868 -0.5781873464584351 0.44557687640190125 
C 0.5694836974143982 -0.0891927182674408 -0.7902585864067078 
C -0.8950805068016052 -0.5447933673858643 -0.5193541049957275 
H -0.020063277333974838 1.8756638765335083 -1.6152290105819702 
H 0.5269238948822021 2.0012810230255127 0.08160141855478287 
H -1.471449851989746 0.5522733926773071 1.1767988204956055 
H -1.6021398305892944 -1.1796005964279175 1.4956504106521606 
H 1.6708849668502808 -1.6275808811187744 0.32371261715888977 
H 2.2083044052124023 0.03669720143079758 0.6901012063026428 
H 1.0305640697479248 -0.372155100107193 -1.7455159425735474 
H -1.4123257398605347 -1.3407832384109497 -1.0497839450836182 
