14

O -0.7752584218978882 0.7947273254394531 1.8317586183547974 
C 0.41679346561431885 0.7656688690185547 0.5814865827560425 
C 0.16319040954113007 0.9229964017868042 -0.9307103753089905 
C 0.7205283045768738 -0.49221131205558777 -0.9843103289604187 
C -0.30022162199020386 -1.3965095281600952 -0.38212376832962036 
C 0.6297814846038818 -0.6987351179122925 0.6223272681236267 
H -1.6246446371078491 0.6368876099586487 1.354123592376709 
H 1.1408952474594116 1.460518479347229 1.0247019529342651 
H -0.8706307411193848 1.0594779253005981 -1.2726982831954956 
H 0.7954748868942261 1.7044200897216797 -1.3756201267242432 
H 1.522542119026184 -0.8838708400726318 -1.5963436365127563 
H -1.3693245649337769 -1.1577414274215698 -0.3423115313053131 
H -0.12326554954051971 -2.4780006408691406 -0.4728168845176697 
H -0.3258605897426605 -0.23762767016887665 1.9425371885299683 
