16

C 2.2488367557525635 -0.19051410257816315 -0.14162153005599976 
C 1.0247206687927246 -0.49493300914764404 0.6222385764122009 
C -1.2974469661712646 0.1486283391714096 -0.7354002594947815 
C -1.914070725440979 -0.5563522577285767 0.45123711228370667 
C -0.5674412250518799 1.3443875312805176 -0.6473160982131958 
O 0.28992587327957153 1.692741870880127 0.22199521958827972 
H 2.3165037631988525 0.9010788202285767 -0.2826414704322815 
H 3.1442179679870605 -0.4830159842967987 0.438895046710968 
H 2.2717158794403076 -0.6889995336532593 -1.1170834302902222 
H 0.41746944189071655 -1.35112726688385 0.353616863489151 
H 0.9407716989517212 -0.14256438612937927 1.6458019018173218 
H -1.819311499595642 -0.011266333982348442 -1.684654712677002 
H -1.538534164428711 -0.15166175365447998 1.3995895385742188 
H -3.010892629623413 -0.4412730932235718 0.44505447149276733 
H -1.7198482751846313 -1.6446375846862793 0.45275557041168213 
H -0.8022017478942871 2.1056978702545166 -1.4230329990386963 
