16

C 0.9030739665031433 -1.2146124839782715 1.5483487844467163 
C 1.1923291683197021 -0.380578875541687 0.3532692492008209 
C 0.49307242035865784 0.9646033644676208 -0.001788732479326427 
C -0.9661312103271484 0.7156983613967896 0.4771326184272766 
C -0.8861324191093445 -0.41281038522720337 -0.5754491090774536 
C -0.03408321365714073 0.5559125542640686 -1.4510464668273926 
N 0.22392496466636658 -1.347562551498413 -0.16434498131275177 
H 0.11350026726722717 -0.778418242931366 2.1718685626983643 
H 0.19083812832832336 -2.10581374168396 0.7339267730712891 
H 2.232994794845581 -0.4475204050540924 0.008977680467069149 
H 1.0261119604110718 1.8961970806121826 0.19354870915412903 
H -1.622273325920105 1.5411298274993896 0.1571023166179657 
H -1.1689997911453247 0.48087990283966064 1.5251960754394531 
H -1.7630068063735962 -0.9813119769096375 -0.9182115793228149 
H -0.6144847869873047 1.3731135129928589 -1.902988076210022 
H 0.679266095161438 0.14109428226947784 -2.1555418968200684 
