10

O 1.4550113677978516 0.60671067237854 -1.503209114074707 
C 0.39571353793144226 -0.2088533341884613 -0.5233083367347717 
C -0.04099087789654732 -0.30124083161354065 -1.7967084646224976 
N -2.143085479736328 1.0561922788619995 1.3041750192642212 
N -1.265186071395874 0.44299569725990295 1.8352971076965332 
C -0.3231964111328125 -0.5050230026245117 1.6294803619384766 
N 0.7172253131866455 -0.332227885723114 0.7057942748069763 
H 1.118355631828308 1.5362513065338135 -1.432672381401062 
H 0.22571268677711487 -1.0088813304901123 -2.5797529220581055 
H -0.13955987989902496 -1.2859236001968384 2.3609046936035156 
