11

O 1.374813199043274 -1.438874363899231 1.7179964780807495 
C 0.6858856678009033 -0.7219140529632568 1.0042080879211426 
C 1.1940189599990845 -0.18449732661247253 -0.3095536530017853 
C 0.22631148993968964 0.005372771993279457 -1.2828302383422852 
N -0.9609334468841553 0.5666280388832092 -0.9029313325881958 
C -1.1100854873657227 0.6371204257011414 0.5334197282791138 
N -0.5522267818450928 -0.21753770112991333 1.396059274673462 
H 2.259247303009033 -0.19932018220424652 -0.4692113697528839 
H 0.37156233191490173 -0.2408512383699417 -2.3312911987304688 
H -1.9978731870651245 0.1770952194929123 -0.23204317688941956 
H -1.4907201528549194 1.616778016090393 0.8761774301528931 
