16

C -0.7142806649208069 -0.3504270613193512 1.4266029596328735 
C -0.3645094931125641 -0.06731794774532318 -0.030403777956962585 
C -0.2549782395362854 -1.164932370185852 -0.8952023983001709 
C -0.6568143963813782 1.341843843460083 -0.5065820813179016 
O 0.6043022274971008 1.9878323078155518 -0.0776488408446312 
C 1.3200485706329346 0.8527405261993408 0.04004746675491333 
N 2.4113049507141113 0.3292293846607208 0.09396324306726456 
H -0.518968939781189 0.5195414423942566 2.066350221633911 
H -1.7795896530151367 -0.6121018528938293 1.523427963256836 
H -0.11863907426595688 -1.1907769441604614 1.8053771257400513 
H -0.23808573186397552 -1.0154036283493042 -1.976317048072815 
H 1.352556586265564 -1.579997181892395 -0.676189661026001 
H -0.5320244431495667 -2.1657838821411133 -0.5607883930206299 
H -1.503508448600769 1.832858681678772 -0.01034808810800314 
H -0.7481966614723206 1.4320104122161865 -1.596875786781311 
H 1.9856363534927368 -1.1019916534423828 -0.3534548580646515 
