16

C -0.8326336145401001 -0.47370365262031555 1.4495540857315063 
C -0.07410875707864761 -1.1190688610076904 0.30185720324516296 
C 0.176405668258667 -0.27695131301879883 -1.431099772453308 
C -0.5032117962837219 1.0716170072555542 -1.4410375356674194 
C 1.1793293952941895 -0.4421616494655609 -0.3007872402667999 
C 1.6545689105987549 0.7010947465896606 0.46267640590667725 
N 2.052046537399292 1.6648601293563843 1.001438021659851 
H -1.7485610246658325 -1.0344287157058716 1.6725574731826782 
H -1.1007764339447021 0.5661384463310242 1.2331377267837524 
H -0.2014298439025879 -0.45172300934791565 2.3564186096191406 
H 0.09363243728876114 -2.1980509757995605 0.4175945520401001 
H -0.7296765446662903 -1.1702345609664917 -0.7163355350494385 
H 0.07370108366012573 1.611842393875122 -2.2097971439361572 
H -0.4914631247520447 1.6948918104171753 -0.5300921201705933 
H -1.541329264640808 1.0206236839294434 -1.7972460985183716 
H 1.9935061931610107 -1.1647454500198364 -0.4688386619091034 
