15

C -1.2381634712219238 0.6405259370803833 0.4780605137348175 
O -0.7071760296821594 1.2900619506835938 -0.7061065435409546 
C 0.4364972412586212 0.5686235427856445 -1.1764322519302368 
C 0.15975545346736908 -0.8670381903648376 -1.0982071161270142 
C -0.2829199731349945 -0.42166760563850403 1.0022743940353394 
C 0.9555548429489136 -0.07750537991523743 1.4796953201293945 
O 1.588230013847351 1.0498785972595215 -0.9906850457191467 
H -2.2164716720581055 0.1883704960346222 0.24681229889392853 
H -1.38919198513031 1.433541178703308 1.222839117050171 
H 0.23542165756225586 0.2627556622028351 -2.344438076019287 
H 1.006391167640686 -1.5449751615524292 -1.2224806547164917 
H -0.8221980333328247 -1.2455819845199585 -1.396658182144165 
H -0.6700000166893005 -1.4293590784072876 1.1759620904922485 
H 1.2950412034988403 0.9549182653427124 1.4673453569412231 
H 1.6447745561599731 -0.8352623581886292 1.8510496616363525 
