14

O 1.9308518171310425 -1.1852458715438843 0.7977275252342224 
C 1.5683314800262451 0.2453175038099289 -0.33007892966270447 
C 0.250964492559433 0.45692309737205505 0.1944667398929596 
C -0.9169328212738037 -0.10249810665845871 -0.546942949295044 
C -2.3028724193573 0.2936379313468933 -0.24518463015556335 
O -1.6805510520935059 0.7581750154495239 -1.4492462873458862 
H 2.568549394607544 -0.9041314125061035 1.49153733253479 
H 2.3881189823150635 0.923881471157074 -0.09843216836452484 
H 1.6966335773468018 -0.3238293528556824 -1.253801703453064 
H 0.8338475227355957 -0.6144716739654541 0.9970558881759644 
H 0.075806625187397 1.3721106052398682 0.7607588768005371 
H -0.7708539366722107 -1.1107001304626465 -0.9570551514625549 
H -2.4774467945098877 1.0595154762268066 0.5202609300613403 
H -3.1226563453674316 -0.42371153831481934 -0.3659403920173645 
