14

C -0.6426076292991638 -1.9325971603393555 -0.4607347548007965 
C -0.34790125489234924 -0.4725220203399658 -0.19334304332733154 
C -0.6210480332374573 0.17967988550662994 1.0218350887298584 
N -0.16294145584106445 1.4629660844802856 0.9973145127296448 
C 0.7980860471725464 1.6405168771743774 -0.1811344027519226 
O 1.1781724691390991 2.7887773513793945 -0.5411907434463501 
C 0.42302238941192627 0.38559430837631226 -0.9688946008682251 
H -1.376947045326233 -2.332167863845825 0.24373967945575714 
H -1.0614678859710693 -2.0436768531799316 -1.4720014333724976 
H 0.26810944080352783 -2.5467185974121094 -0.39945074915885925 
H -0.9291858077049255 -0.27066436409950256 1.968265175819397 
H 0.0031786083709448576 2.042240858078003 1.8133316040039062 
H 0.8008294701576233 0.23916089534759521 -1.9786722660064697 
H 1.6707007884979248 0.8594099879264832 0.15093576908111572 
