17

C -0.9062958359718323 1.9658291339874268 -0.36869728565216064 
C -0.9460178017616272 0.4356364607810974 -0.4019613564014435 
C 0.1690136194229126 -0.3295608162879944 -1.177215576171875 
C 0.5938528180122375 -0.8738135695457458 0.07670551538467407 
O 1.2375127077102661 -2.4238760471343994 -0.3306472599506378 
C 1.0217492580413818 -0.11526097357273102 1.2784212827682495 
C -0.48881712555885315 -0.28271976113319397 0.9129161834716797 
H 0.0721859410405159 2.3435070514678955 -0.05046303942799568 
H -1.1042033433914185 2.384397268295288 -1.3706107139587402 
H -1.6726502180099487 2.3649191856384277 0.31855541467666626 
H -1.9481295347213745 0.08422493189573288 -0.6943820118904114 
H 0.8350712656974792 0.1690986305475235 -1.8728935718536377 
H 0.816487193107605 -1.971566915512085 -1.2679187059402466 
H 0.6111071109771729 -3.108595609664917 -0.021501019597053528 
H 1.3238105773925781 -0.7168896794319153 2.1389248371124268 
H 1.5338045358657837 0.8450503945350647 1.1992040872573853 
H -1.148480772972107 -0.7703798413276672 1.6315637826919556 
