12

O -0.5969706177711487 1.1655524969100952 -0.9259975552558899 
C 0.22626255452632904 -0.2525530457496643 -0.8120396137237549 
C -0.8737401962280273 -1.0351959466934204 -0.12024873495101929 
C -1.3292053937911987 0.18352028727531433 0.5649247169494629 
C 1.4939848184585571 -0.059570666402578354 -0.31730136275291443 
C 2.713271141052246 0.06105565279722214 -0.07951781153678894 
H -0.013451849110424519 1.8233641386032104 -0.4954577386379242 
H -1.6194791793823242 -1.4668257236480713 -0.8027293682098389 
H -0.4639713764190674 -1.8096226453781128 0.5363227725028992 
H -2.3282787799835205 0.6025404334068298 0.4333503246307373 
H -0.7549795508384705 0.5277529954910278 1.4221022129058838 
H 3.52598237991333 0.30103087425231934 0.5820831060409546 
