16

C 1.2968127727508545 0.29295095801353455 1.809609293937683 
C 1.3441060781478882 0.1283700168132782 0.295305073261261 
C 1.1361788511276245 -1.1777193546295166 -0.2698531150817871 
C 0.20118385553359985 -1.6179269552230835 -0.9807447791099548 
C -0.9642465114593506 -1.3632416725158691 -1.634206771850586 
C -1.429478406906128 0.8746656179428101 -0.4200662076473236 
H 1.07687246799469 1.330671787261963 2.078354597091675 
H 0.5239614844322205 -0.3532111644744873 2.253887891769409 
H 2.2629966735839844 0.03173423931002617 2.2714507579803467 
H 0.3362549841403961 0.6178125739097595 -0.20116177201271057 
H 2.167555332183838 0.6958800554275513 -0.16398602724075317 
H -1.0104550123214722 -0.8726350665092468 -2.6110119819641113 
H -1.911302924156189 -1.777232050895691 -1.284407377243042 
H -1.1823179721832275 1.6504719257354736 0.3098693788051605 
H -2.237839698791504 0.25180551409721375 -0.049491312354803085 
H -1.610282301902771 1.2876032590866089 -1.4035476446151733 
