16

C 1.9165571928024292 -0.23428215086460114 -0.6913273334503174 
C 0.9516334533691406 -0.01669873669743538 0.4649899899959564 
N 2.0279035568237305 1.0885289907455444 -0.34038132429122925 
C -0.008508363738656044 1.4496022462844849 0.4911666810512543 
C -0.5155051946640015 0.11823085695505142 0.21305513381958008 
C -1.3512290716171265 -0.5456857681274414 -0.8364896774291992 
C -1.6447749137878418 -0.7815151214599609 0.645940363407135 
H 2.6560311317443848 -0.986902117729187 -0.33975958824157715 
H 1.4565178155899048 -0.5684283971786499 -1.63777494430542 
H 1.3240282535552979 -0.16093820333480835 1.46914803981781 
H 0.04339361563324928 2.209278106689453 -0.2918209433555603 
H 0.028623398393392563 1.8114770650863647 1.5226855278015137 
H -0.9234095215797424 -1.3866257667541504 -1.387689471244812 
H -2.045631170272827 0.06936362385749817 -1.4003561735153198 
H -2.5336787700653076 -0.3125283718109131 1.0598148107528687 
H -1.3819518089294434 -1.7528765201568604 1.0587987899780273 
