11

O 2.27396821975708 -1.3713849782943726 -0.21597470343112946 
C 1.1947165727615356 -0.807769775390625 -0.047563835978507996 
C 1.0678694248199463 0.6626884937286377 0.04014623537659645 
C -0.1517019271850586 1.2898297309875488 -0.08222250640392303 
N -1.3230475187301636 0.5975988507270813 -0.23621252179145813 
C -1.1541433334350586 -0.8154189586639404 -0.09927859902381897 
N -0.01569960080087185 -1.5209150314331055 0.04603641480207443 
H 1.983231544494629 1.2419743537902832 0.15747345983982086 
H -0.24985843896865845 2.3763067722320557 -0.06499210745096207 
H -1.5615159273147583 -0.3135767877101898 0.9213371276855469 
H -2.0441040992736816 -1.380940556526184 -0.40992096066474915 
