11

C 1.852304220199585 -0.8858223557472229 -1.8322319984436035 
C 1.1277680397033691 -0.5160319805145264 -0.9126904010772705 
C 0.14791980385780334 -0.4400136172771454 0.1539287269115448 
C -1.0336042642593384 0.36666256189346313 -0.05500119924545288 
C -1.4392210245132446 1.3641451597213745 0.9718022346496582 
N -0.39583760499954224 1.7957611083984375 1.5540776252746582 
N 0.28689512610435486 -1.0059853792190552 1.3289979696273804 
H 2.377142906188965 -0.9656482338905334 -2.774872064590454 
H -1.5453081130981445 0.37452709674835205 -1.0081782341003418 
H -2.4833567142486572 1.5426138639450073 1.2519968748092651 
H 1.105297327041626 -1.630207896232605 1.322170615196228 
