13

O 2.1293864250183105 0.6419967412948608 -0.048189613968133926 
C 1.024720549583435 0.18702568113803864 0.7038956880569458 
C 0.0294127706438303 -0.5790149569511414 -0.2294251173734665 
C -1.1137824058532715 -1.9968228340148926 0.24181780219078064 
C -1.1586859226226807 -1.1608744859695435 1.2081995010375977 
C -0.7529628872871399 0.3406779170036316 -1.0511889457702637 
C -1.4753319025039673 1.0909249782562256 -1.6960276365280151 
H 1.778738260269165 1.2682569026947021 -0.716604471206665 
H 0.4879719913005829 0.9787212610244751 1.2450227737426758 
H 1.460283637046814 -0.5253799557685852 1.4163639545440674 
H 0.6493843197822571 -1.2407351732254028 -0.8593502044677734 
H -1.0575138330459595 -0.7042443156242371 2.18557071685791 
H -2.0016207695007324 1.6994681358337402 -2.4000842571258545 
