17

C 1.3758448362350464 -0.9986064434051514 -1.348823070526123 
C 1.3577529191970825 -0.2457352578639984 -0.021647416055202484 
O 0.6886240243911743 -0.8945361971855164 1.0345280170440674 
C -0.6133249402046204 -0.4660136103630066 1.3750746250152588 
C -1.3976283073425293 0.08083169907331467 0.13530336320400238 
C -1.0561778545379639 1.4758926630020142 -0.2294035702943802 
O -0.195034459233284 2.3081417083740234 0.38095852732658386 
H 1.5179810523986816 -0.26635485887527466 -2.1573550701141357 
H 2.234792709350586 -1.6993569135665894 -1.415184736251831 
H 0.4581979215145111 -1.5622098445892334 -1.5351091623306274 
H 2.33903431892395 0.08264748752117157 0.28463950753211975 
H -0.5788995623588562 0.29639023542404175 2.1583118438720703 
H -1.144917607307434 -1.366662621498108 1.7327762842178345 
H -1.2573453187942505 -0.6087572574615479 -0.7030354738235474 
H -2.4746341705322266 0.049487896263599396 0.38611021637916565 
H -1.7877694368362427 2.0201821327209473 -0.8280421495437622 
H 0.5335039496421814 1.79465913772583 0.7508983016014099 
