10

N 1.5851415395736694 0.9127155542373657 -0.3094073534011841 
C 0.8661725521087646 -0.02119537629187107 0.36900290846824646 
O -0.012624437920749187 0.3293013572692871 1.2068616151809692 
C -0.8850763440132141 -0.9647753238677979 -0.004950453527271748 
O -2.160881996154785 -0.4371575117111206 0.0619608536362648 
H 1.4608732461929321 1.9006471633911133 -0.08349177986383438 
H 2.5165834426879883 0.6747028827667236 -0.629879891872406 
H -0.5124646425247192 -1.071591854095459 -1.0274882316589355 
H -0.7510524988174438 -1.822988748550415 0.6397290229797363 
H -2.10667085647583 0.5003419518470764 -0.2223368138074875 
