14

C 1.2132517099380493 -1.132714867591858 0.19375933706760406 
C 0.2682325541973114 0.033049389719963074 -0.018378226086497307 
C 0.8251085877418518 1.5136679410934448 -1.1472710371017456 
O 0.027337390929460526 0.3580063581466675 -1.4015394449234009 
C -1.067408800125122 -0.06392549723386765 0.7660805583000183 
O -1.1052825450897217 -0.6396481990814209 1.8484575748443604 
N -2.099478006362915 0.5506714582443237 0.1412721574306488 
H 2.11844801902771 -1.0052255392074585 -0.4102904796600342 
H 1.4853066205978394 -1.2109569311141968 1.2517826557159424 
H 0.7121193408966064 -2.0627663135528564 -0.10403172671794891 
H 0.7024236917495728 1.0302224159240723 0.4138326048851013 
H 1.8884869813919067 1.1275008916854858 -1.2369033098220825 
H -3.0247604846954346 0.5056878328323364 0.5517667531967163 
H -1.9684500694274902 0.8720042109489441 -0.812299370765686 
