9

C -0.996316134929657 -0.35779571533203125 0.10269895195960999 
C 0.6854154467582703 0.9202927350997925 0.0630212277173996 
O 0.7340539693832397 -0.6726822257041931 0.28568723797798157 
H -1.3372771739959717 -0.004077862948179245 1.0702096223831177 
H -1.4048681259155273 0.22299563884735107 -0.723304271697998 
H -1.1982437372207642 -1.4384514093399048 -0.03578856214880943 
H 1.4683359861373901 1.3003185987472534 0.7394322752952576 
H 1.0169677734375 1.0692801475524902 -0.9775519967079163 
H 1.1156861782073975 -1.130307912826538 -0.5005914568901062 
