16

C 1.7908300161361694 -0.7035605311393738 0.03947649896144867 
C 0.6635087728500366 -0.49161282181739807 1.014498233795166 
N 0.3469046354293823 0.9106934070587158 1.3384366035461426 
C -0.6378908753395081 1.1192512512207031 0.48995494842529297 
O -1.1104563474655151 2.216299295425415 -0.03434755280613899 
C -1.0114290714263916 -0.20264804363250732 -0.026927610859274864 
C -1.3611453771591187 -0.15716560184955597 -1.414198875427246 
H 1.5793168544769287 -0.19627700746059418 -0.9158978462219238 
H 1.861341953277588 -1.7791500091552734 -0.17806409299373627 
H 2.776884078979492 -0.3708023428916931 0.40678396821022034 
H 0.660529375076294 -1.1427440643310547 1.895835041999817 
H 0.8314708471298218 1.5991593599319458 1.9138178825378418 
H -1.6912981271743774 -0.7630711793899536 0.6239596009254456 
H -1.9216443300247192 -0.9941942095756531 -1.8343867063522339 
H -0.628246545791626 0.2695450782775879 -2.110102415084839 
H -1.6998568773269653 1.7464934587478638 -0.777207612991333 
