11

C -1.7171043157577515 -0.22949643433094025 0.05812843516469002 
C -0.16029861569404602 0.9077858328819275 0.6687262058258057 
C 0.9832713007926941 1.115295648574829 -0.1401660442352295 
N 1.6022156476974487 -0.09085815399885178 -0.25237295031547546 
N 0.9435433745384216 -1.1013439893722534 0.3250221908092499 
N -0.11822853982448578 -0.49399808049201965 0.9069167971611023 
H -1.7175437211990356 -1.250414252281189 -0.33777663111686707 
H -1.8889694213867188 0.4880315661430359 -0.7489922642707825 
H -2.4010438919067383 -0.09889037162065506 0.8917057514190674 
H 1.4013358354568481 2.0056097507476807 -0.5946028232574463 
H 2.5309934616088867 -0.29456543922424316 -0.6204966902732849 
