16

C -0.8373023867607117 0.326037734746933 -1.7552416324615479 
C 0.4584440588951111 0.967843770980835 -1.2472318410873413 
O 0.3570146858692169 1.3403767347335815 0.14942272007465363 
C 0.765784740447998 0.6086251735687256 1.1952444314956665 
C -0.47267481684684753 -0.8146229982376099 1.7288464307785034 
C 0.8897014856338501 -0.8927492499351501 1.0972225666046143 
H -1.71181321144104 0.9377115964889526 -1.496823787689209 
H -0.7943363785743713 0.21867921948432922 -2.844489812850952 
H -0.9755265116691589 -0.67955082654953 -1.337120771408081 
H 0.6359288692474365 1.9188942909240723 -1.762647032737732 
H 1.319701075553894 0.3162385821342468 -1.413845181465149 
H -0.2900700867176056 0.5137523412704468 2.017953395843506 
H -1.3464784622192383 -0.9435698986053467 1.083678126335144 
H -0.6023953557014465 -1.1740401983261108 2.7496790885925293 
H 1.6695334911346436 -1.3084567785263062 1.7470673322677612 
H 0.9344892501831055 -1.335169792175293 0.08828625082969666 
