8

O -0.6141461133956909 0.0837102085351944 2.0206713676452637 
C -0.028251126408576965 -0.005330593790858984 0.9467365145683289 
N 0.7849244475364685 0.9276490211486816 0.31619298458099365 
N 0.802412748336792 0.5462204217910767 -1.1187477111816406 
N 0.15259456634521484 -0.5663307309150696 -1.3018112182617188 
N -0.31665104627609253 -0.9507749676704407 -0.11686865985393524 
H 0.326289564371109 1.579106092453003 -0.6765319108963013 
H -1.1071730852127075 -1.614249348640442 -0.0696415901184082 
