17

C 1.4657920598983765 -1.2078412771224976 0.2789604663848877 
C 0.6112770438194275 0.031257323920726776 0.19891422986984253 
C 0.5688202977180481 0.9551911950111389 -1.1269996166229248 
C -0.9107193946838379 0.6806057691574097 -1.2392746210098267 
C -0.9482660889625549 0.004309185780584812 0.024280637502670288 
C -1.0623096227645874 0.6863502264022827 1.385461449623108 
O 0.4256100058555603 0.7710623145103455 1.4461462497711182 
H 1.9109742641448975 -1.4462881088256836 -0.6990483999252319 
H 0.8872304558753967 -2.0854389667510986 0.6081516146659851 
H 2.2889459133148193 -1.0644404888153076 0.9959776997566223 
H 1.2634111642837524 0.607464611530304 -1.9029362201690674 
H 0.8518065214157104 1.9847162961959839 -0.8461989760398865 
H -1.2017055749893188 -1.0366405248641968 -0.7411163449287415 
H -1.5549147129058838 0.5733311176300049 -2.105802297592163 
H -1.6084132194519043 -1.233436942100525 0.1783781349658966 
H -1.4795931577682495 0.08890661597251892 2.201918601989746 
H -1.5079456567764282 1.6908912658691406 1.3431875705718994 
