15

C -2.506756067276001 0.7635157704353333 0.1299581378698349 
O -1.5654569864273071 -0.22608481347560883 -0.3420574963092804 
C -0.22861894965171814 -0.020379742607474327 0.22505690157413483 
O 0.23019939661026 1.204781413078308 0.29180264472961426 
C 0.7181352376937866 -1.0071392059326172 -0.3492076098918915 
C 2.1288466453552246 -0.6174567341804504 -0.527092456817627 
O 2.6512444019317627 0.04610683396458626 0.6237704157829285 
H -2.6865897178649902 0.7592703104019165 1.206210970878601 
H -2.1870129108428955 1.7758845090866089 -0.17093458771705627 
H -3.4469845294952393 0.5347103476524353 -0.3968295156955719 
H 0.3575931489467621 -2.005347728729248 -0.5921117663383484 
H -0.31814685463905334 -0.5113782286643982 1.2625386714935303 
H 2.154797315597534 0.07957242429256439 -1.4067350625991821 
H 2.7452609539031982 -1.4859827756881714 -0.7557534575462341 
H 1.9534882307052612 0.7099276185035706 0.8013840913772583 
