11

C -1.6300936937332153 -0.07030482590198517 0.4897722899913788 
C -0.257467120885849 -0.09333498775959015 -0.11753547936677933 
O 0.056537263095378876 0.7113029360771179 -1.0852887630462646 
N 0.7989827394485474 -0.7894824147224426 0.226963609457016 
C 1.764935851097107 0.4461451768875122 -0.7787259221076965 
O 2.4194250106811523 0.08019112050533295 -1.708715796470642 
H -1.6961233615875244 -0.7364051342010498 1.3617854118347168 
H -1.888267159461975 0.9584569931030273 0.7938137650489807 
H -2.3599295616149902 -0.3909197747707367 -0.2642083466053009 
H 0.8302955627441406 -1.3226313591003418 1.1027112007141113 
H 1.9617043733596802 1.206982135772705 -0.020572125911712646 
