18

C 0.6537712812423706 1.321467638015747 -0.9578039646148682 
C 0.0038635055534541607 0.20411400496959686 -0.12116940319538116 
C -1.5035713911056519 0.45244094729423523 0.025537071749567986 
C 0.2682376205921173 -1.188232183456421 -0.7529499530792236 
C 0.5482283234596252 -1.5219250917434692 1.4408488273620605 
C 0.6687491536140442 -0.0004980785888619721 1.2617486715316772 
H 1.7346456050872803 1.169209599494934 -1.0745327472686768 
H 0.22488683462142944 1.369342565536499 -1.9664201736450195 
H 0.49808645248413086 2.3053369522094727 -0.49139198660850525 
H -1.9914239645004272 0.494281530380249 -0.9564032554626465 
H -1.6933032274246216 1.4171019792556763 0.5173595547676086 
H -1.9949179887771606 -0.34025758504867554 0.5982217192649841 
H 1.1792664527893066 -1.2426774501800537 -1.3567136526107788 
H -0.5821124315261841 -1.66757071018219 -1.2630268335342407 
H -0.5281631946563721 -1.6665252447128296 1.6819391250610352 
H 0.6114895939826965 -1.980060338973999 0.10238033533096313 
H 1.7272624969482422 0.3009064495563507 1.2576674222946167 
H 0.17500422894954681 0.5735455751419067 2.05470871925354 
