12

N 0.8113231062889099 -1.960573673248291 -0.4451565742492676 
C 0.49172860383987427 -0.7672906517982483 0.1158241257071495 
N -0.8643513321876526 -0.2724864184856415 -0.0022949371486902237 
C -0.8342094421386719 1.0186316967010498 -0.7290757298469543 
C -0.07361679524183273 1.8552477359771729 -0.01504923589527607 
C 0.11374154686927795 0.9421409964561462 1.133204698562622 
N 1.1429387331008911 -0.04786458611488342 1.0085792541503906 
H 0.026429180055856705 -2.589165210723877 -0.6173052787780762 
H 1.597124457359314 -2.4257471561431885 0.014918426983058453 
H -1.5555354356765747 1.122652530670166 -1.5393459796905518 
H 0.12291131913661957 2.9158072471618652 -0.12325151264667511 
H -0.9784839153289795 0.20864805579185486 1.198952555656433 
