14

C -1.514316439628601 -0.8896661996841431 -0.22723664343357086 
N -1.8349589109420776 0.559224545955658 -0.20155052840709686 
C -0.4598691761493683 0.13748127222061157 -0.0581834614276886 
C 0.5479430556297302 0.46955326199531555 1.007727026939392 
C 1.707635521888733 -0.3383892774581909 -0.30495211482048035 
C 0.7220701575279236 0.5366635322570801 -0.8795496821403503 
O 0.8833693861961365 1.739798903465271 0.7890857458114624 
H -1.747336506843567 -1.508653998374939 0.6436222195625305 
H -1.6689807176589966 -1.3744442462921143 -1.1931709051132202 
H -2.216775417327881 0.8381104469299316 0.7086323499679565 
H 0.5577901601791382 0.01900230161845684 2.023124933242798 
H 1.4666907787322998 -1.4041827917099 -0.30889368057250977 
H 2.7649924755096436 -0.07464177906513214 -0.33666062355041504 
H 0.7913286685943604 1.2888200283050537 -1.6708065271377563 
