15

C -1.349618911743164 -0.5405070185661316 -0.712731659412384 
O -1.506017804145813 -1.8051754236221313 -0.3228470981121063 
C 0.17004796862602234 -0.8605735898017883 0.975936770439148 
C 1.4118077754974365 -0.6982547044754028 0.33409130573272705 
C 1.4109160900115967 0.5008880496025085 -0.3640224039554596 
C 0.21934345364570618 1.3361371755599976 0.013433259911835194 
C -0.7324726581573486 0.2503170967102051 0.536260724067688 
H -0.5015090107917786 -0.3704715669155121 -1.4551746845245361 
H -2.2481136322021484 -0.08785385638475418 -1.20107901096344 
H -0.08683007955551147 -1.6413216590881348 1.6819089651107788 
H 2.204108476638794 -1.443092703819275 0.3093801438808441 
H 2.208878993988037 0.8401206135749817 -1.0228824615478516 
H 0.49851009249687195 2.055004119873047 0.8047189116477966 
H -0.19890007376670837 1.9128764867782593 -0.8238152861595154 
H -1.5015535354614258 0.5546740293502808 1.2533336877822876 
