17

C 1.444716215133667 -0.08359764516353607 -1.5905107259750366 
C 0.42172250151634216 0.12046940624713898 -0.4970715343952179 
C 0.5141643285751343 -0.7521378397941589 0.7829186320304871 
C -0.9893057346343994 -0.9523716568946838 1.0644632577896118 
C -1.63418710231781 0.035880196839571 0.06132888421416283 
C -1.1244720220565796 1.4372962713241577 0.3909962475299835 
O 0.20560269057750702 1.4798253774642944 -0.255567729473114 
H 1.2454274892807007 0.5630260109901428 -2.4485220909118652 
H 2.4393792152404785 0.16014282405376434 -1.1922988891601562 
H 1.4390281438827515 -1.1225835084915161 -1.94891357421875 
H 1.039626121520996 -0.19793404638767242 1.579128384590149 
H 1.068695068359375 -1.68367338180542 0.6165651082992554 
H -1.2760632038116455 -0.6974354982376099 2.0906946659088135 
H -1.343992829322815 -1.9745386838912964 0.8799441456794739 
H -0.7151989936828613 -0.19335438311100006 -0.9862382411956787 
H -0.998034656047821 1.615713119506836 1.4772430658340454 
H -1.737107515335083 2.2452735900878906 -0.0241597518324852 
