8

N -0.18840673565864563 2.631622791290283 1.425320029258728 
C -0.040846578776836395 1.4900468587875366 1.13042151927948 
C 0.10031060874462128 0.22380633652210236 0.5732611417770386 
C 0.4847860336303711 -0.984927237033844 0.46111389994621277 
O 0.57185959815979 -1.2583627700805664 -1.3569015264511108 
N -0.34075218439102173 -0.408705472946167 -1.7687149047851562 
N -1.134558081626892 0.32286277413368225 -1.2015368938446045 
H 0.5476073622703552 -2.016343593597412 0.737036943435669 
