15

C 1.7970658540725708 0.791541576385498 0.43233758211135864 
C 0.25975605845451355 -0.1615954041481018 -0.9722304940223694 
C -0.9265081286430359 -0.16324225068092346 -0.21008190512657166 
N -1.3088058233261108 0.977462112903595 0.4106593132019043 
O -0.4876556396484375 1.9784855842590332 0.20725399255752563 
C -1.6759215593338013 -1.41953706741333 0.15270598232746124 
H 2.293928861618042 1.7666417360305786 0.5676459670066833 
H 1.5909547805786133 0.3122898042201996 1.3942368030548096 
H 2.4555633068084717 0.16869430243968964 -0.17593809962272644 
H 0.4412146508693695 0.6549359560012817 -1.6685128211975098 
H 0.7606377601623535 -1.1035785675048828 -1.1960482597351074 
H 0.6662955284118652 1.4288588762283325 0.1389869749546051 
H -2.5200915336608887 -1.1605676412582397 0.8039564490318298 
H -2.0596439838409424 -1.9342896938323975 -0.739500880241394 
H -1.030339241027832 -2.129439115524292 0.6931685209274292 
