12

O 1.382739543914795 1.73453688621521 -1.8859896659851074 
C 0.380410373210907 1.0262999534606934 -1.7575253248214722 
C -0.20905427634716034 0.7224390506744385 -0.40795445442199707 
C 0.558933436870575 0.599799394607544 0.8977198004722595 
N 0.25926774740219116 -0.5726284384727478 0.14507810771465302 
C -0.39843684434890747 -1.5612183809280396 0.7471047639846802 
O -0.9441421627998352 -1.3539443016052246 1.9229375123977661 
H -0.10291063040494919 0.4749395251274109 -2.591613531112671 
H -1.2794654369354248 0.9513183832168579 -0.34031942486763 
H 1.6284853219985962 0.8332575559616089 0.9019769430160522 
H -0.81695955991745 -0.2909393608570099 2.0414235591888428 
H -0.4588674306869507 -2.5638601779937744 0.3271619975566864 
