10

C 1.4774377346038818 -0.009504173882305622 0.366605281829834 
C -0.1651800274848938 -0.030016694217920303 0.44221317768096924 
C -0.28762418031692505 -0.47877517342567444 -0.8486331701278687 
N -2.5976059436798096 -0.36562979221343994 -0.829622745513916 
N -3.0276269912719727 0.5211092233657837 -0.2910572290420532 
O -0.6935039162635803 0.06843825429677963 1.5585001707077026 
H 1.700720191001892 0.9141693711280823 0.9371422529220581 
H 1.9664124250411987 0.029837319627404213 -0.6091210842132568 
H 1.7789311408996582 -0.8973219990730286 0.9241117835044861 
H -0.15196025371551514 0.24769365787506104 -1.6501383781433105 
