9

C -1.363310694694519 0.020545151084661484 0.06917983293533325 
C 0.029252631589770317 -0.010526996105909348 -0.4088548421859741 
C 1.0023587942123413 -0.04306548833847046 -1.3039404153823853 
C 1.744396686553955 -0.02886686474084854 -0.0698876678943634 
O 2.871502161026001 -0.03481448069214821 0.3725956976413727 
H -1.5778660774230957 0.9331496357917786 0.6409968137741089 
H -1.604515790939331 -0.8590905070304871 0.6806313395500183 
H -1.9922473430633545 0.009816829115152359 -0.835631251335144 
H 0.8725945353507996 0.001420671702362597 0.9145424962043762 
