11

C -1.274968147277832 1.2887132167816162 0.13151815533638 
C -1.1865174770355225 0.12268419563770294 0.6725513935089111 
C 0.06747874617576599 -0.40160441398620605 1.1625707149505615 
N 1.0885119438171387 -1.3300496339797974 0.564842700958252 
C 0.801882803440094 -0.1135312095284462 -0.16804175078868866 
C 0.5197723507881165 -0.31182071566581726 -1.5511033535003662 
N 0.522899866104126 -0.6291182637214661 -2.6913979053497314 
H -1.9870437383651733 2.06786847114563 -0.0980333462357521 
H 0.501426637172699 0.1252855658531189 2.0100760459899902 
H 0.6894936561584473 -2.132392168045044 0.03564368933439255 
H 0.25706368684768677 1.3139647245407104 -0.06862622499465942 
