18

C 1.7989814281463623 0.668012797832489 1.4474055767059326 
C 0.2945147156715393 0.32405805587768555 1.337251901626587 
C -0.451700359582901 1.2450876235961914 0.440427303314209 
N -0.036426644772291183 -0.9411935806274414 0.7226925492286682 
C 0.32227426767349243 -1.1119624376296997 -0.5319145917892456 
C -1.2899895906448364 -0.4169594943523407 -1.734981894493103 
O -2.434532642364502 -0.9944679141044617 -1.297877311706543 
H 1.9357719421386719 1.663463830947876 1.902235746383667 
H 2.2938144207000732 -0.06975392252206802 2.1100358963012695 
H 2.299778461456299 0.6383667588233948 0.47743192315101624 
H -0.1689441204071045 0.38389116525650024 2.330775499343872 
H 0.03487763926386833 1.6603528261184692 -0.4426984488964081 
H -1.500362515449524 1.4613394737243652 0.603990912437439 
H 0.36763501167297363 -2.1146295070648193 -0.9576191902160645 
H 0.9865090847015381 -0.4256235361099243 -1.0800400972366333 
H -1.3960819244384766 0.6577312350273132 -1.927098274230957 
H -0.8214759230613708 -0.8725760579109192 -2.6276676654815674 
H -2.2346432209014893 -1.7551372051239014 -0.7723500728607178 
