15

C -0.8913355469703674 0.644544243812561 -1.4126174449920654 
C -0.7524223327636719 -0.5333372354507446 -0.45575597882270813 
O -0.1916494071483612 -1.6267890930175781 -1.174664855003357 
C 0.1599271148443222 -0.2867929935455322 0.7553169131278992 
O 0.4241388440132141 -1.2757567167282104 1.5478545427322388 
C 1.1581354141235352 0.7746807932853699 0.8429856896400452 
O 2.0438504219055176 0.5337756276130676 1.7683939933776855 
H -1.569534420967102 0.3726714253425598 -2.2305848598480225 
H -1.309039831161499 1.522286295890808 -0.8996260762214661 
H 0.08035186678171158 0.9043331146240234 -1.8519814014434814 
H -1.7473784685134888 -0.8008654117584229 -0.05474476516246796 
H 0.0436774417757988 -2.2835617065429688 -0.48641881346702576 
H -0.31280791759490967 0.792880117893219 1.3245158195495605 
H 1.7007591724395752 -0.45057055354118347 2.019458532333374 
H 1.1970436573028564 1.7069741487503052 0.28463876247406006 
