16

C 1.5471563339233398 -0.5859620571136475 0.9199702739715576 
C 0.456108421087265 -0.23278102278709412 -0.061790838837623596 
C 0.7174378633499146 0.43299418687820435 -1.3600023984909058 
C -0.3031701445579529 1.1018221378326416 0.005227935500442982 
C -1.6397504806518555 0.29883667826652527 0.13906671106815338 
N -1.8815678358078003 -0.6272549033164978 -0.954951286315918 
C -0.919331967830658 -1.0064541101455688 0.06612034887075424 
H 1.1653261184692383 -0.6502971053123474 1.9493647813796997 
H 2.3588905334472656 0.15296784043312073 0.8879456520080566 
H 1.9696711301803589 -1.567696452140808 0.6583155393600464 
H 1.632986068725586 1.0386672019958496 -1.2347381114959717 
H -0.24208705127239227 1.4157872200012207 -1.197173833847046 
H 0.037506360560655594 1.8920845985412598 0.6696956753730774 
H -2.4706737995147705 0.6432473659515381 0.7536491751670837 
H -1.4077301025390625 -0.3501066565513611 -1.8259773254394531 
H -1.0669214725494385 -1.9267359972000122 0.6315377354621887 
