13

C -1.2400802373886108 -0.5862440466880798 0.5797590613365173 
C -0.14747458696365356 0.17675179243087769 -0.16110026836395264 
O -0.4997042715549469 0.39657264947891235 -1.538601279258728 
C 1.2636079788208008 -0.43509674072265625 -0.10999860614538193 
C 0.6214667558670044 1.2137037515640259 0.5798191428184509 
H -0.9301663041114807 -0.8049906492233276 1.6089317798614502 
H -1.476930856704712 -1.5240628719329834 0.05894338712096214 
H -2.15661358833313 0.02099144645035267 0.6317141056060791 
H -1.2671743631362915 0.9982470870018005 -1.5261573791503906 
H 1.3270624876022339 -1.3314858675003052 0.5116168260574341 
H 1.7049654722213745 -0.5063064694404602 -1.1051303148269653 
H 1.872061014175415 0.32586029171943665 0.5445352792739868 
H 1.0208255052566528 1.8785747289657593 -0.21950368583202362 
