16

C -1.5687998533248901 -1.168399691581726 -0.12391394376754761 
C 0.6644881963729858 0.49138665199279785 0.30888819694519043 
C 0.607038140296936 1.488000512123108 1.431854009628296 
C 0.0933142825961113 0.6324983835220337 -1.072402000427246 
O -0.11214292794466019 -0.7964935898780823 -1.41657555103302 
C 1.1470072269439697 -1.3118469715118408 -0.7840820550918579 
N 1.3948599100112915 -0.6198074221611023 0.3161938190460205 
H -2.0345466136932373 -0.27863746881484985 0.3054635524749756 
H -1.0334559679031372 -1.745917797088623 0.6254246234893799 
H -2.1493852138519287 -1.7271767854690552 -0.8559905886650085 
H -0.03147347271442413 1.1144163608551025 2.2555110454559326 
H 0.17930889129638672 2.442793369293213 1.0870307683944702 
H 1.6172130107879639 1.683340072631836 1.827878475189209 
H 0.8269223570823669 1.0182697772979736 -1.8035154342651367 
H -0.8611068725585938 1.1705623865127563 -1.1670269966125488 
H 1.260758876800537 -2.3929874897003174 -0.9347379207611084 
