15

C -1.8007972240447998 0.2257724106311798 1.500620722770691 
C -0.6421266198158264 0.0651305690407753 0.5585399866104126 
C -0.6364971995353699 -0.49564841389656067 -0.7164471745491028 
C 0.667012095451355 -0.2575035095214844 -1.2235870361328125 
N 1.3833671808242798 -0.09074655920267105 -2.3486123085021973 
C 1.5450690984725952 0.15458978712558746 -0.14292077720165253 
N 0.6090198755264282 0.5116183757781982 0.9010139107704163 
H -2.638068199157715 -0.4083828628063202 1.167487621307373 
H -1.5227203369140625 -0.09038033336400986 2.5178985595703125 
H -2.144134283065796 1.2697021961212158 1.5441035032272339 
H -1.4392238855361938 -1.0938559770584106 -1.1496626138687134 
H 2.233983039855957 0.4629863500595093 -1.4139742851257324 
H 1.3570609092712402 -0.8948867917060852 -3.0290188789367676 
H 2.2665064334869385 -0.573775589466095 0.22625307738780975 
H 0.7615489363670349 1.215380311012268 1.6083056926727295 
