17

C -0.4761655330657959 1.5256673097610474 -1.9448182582855225 
C -0.2343807816505432 0.18632082641124725 -1.3068960905075073 
N 0.4669768512248993 0.0509052500128746 -0.1751723289489746 
C 0.509114146232605 0.8179486989974976 1.0856367349624634 
C 0.22961723804473877 -0.627114474773407 1.0059922933578491 
C 0.7672540545463562 -1.8931962251663208 1.5643121004104614 
H -1.4455602169036865 1.534719467163086 -2.4700231552124023 
H -0.47565343976020813 2.326568841934204 -1.1881979703903198 
H 0.3029954135417938 1.7503669261932373 -2.700446128845215 
H -1.781614899635315 -0.33354753255844116 -0.19283032417297363 
H -0.274254709482193 -0.6999669075012207 -1.9450976848602295 
H -0.3376660943031311 1.4967366456985474 1.2439512014389038 
H 1.5010921955108643 1.2014058828353882 1.3499681949615479 
H -1.4454666376113892 -0.6257308125495911 0.5438855290412903 
H 1.6465271711349487 -1.7290359735488892 2.2127981185913086 
H -0.009726746007800102 -2.392808198928833 2.1584901809692383 
H 1.0569123029708862 -2.5892395973205566 0.7584486603736877 
