12

C -1.486494779586792 2.3204739093780518 -0.5033433437347412 
C -0.7896174192428589 1.3472219705581665 -0.7444383502006531 
C 0.033245768398046494 0.160348042845726 -0.9763332605361938 
C 1.1626983880996704 -0.007500671781599522 0.06612486392259598 
C 0.5881105065345764 -1.390056848526001 1.1955889463424683 
O 1.4799994230270386 -1.4034613370895386 0.09322530031204224 
H -2.1378872394561768 3.159240245819092 -0.6196823716163635 
H -0.5868494510650635 -0.739479660987854 -1.1283296346664429 
H 0.6385990977287292 0.2871917486190796 -1.8890585899353027 
H 0.5391896367073059 -0.2047128975391388 1.4136736392974854 
H -0.4556730091571808 -1.6959322690963745 0.9955986738204956 
H 1.014679193496704 -1.8333321809768677 2.0969738960266113 
