17

C -0.7910895347595215 -1.8708443641662598 -0.5685527920722961 
O 0.008262841030955315 -0.7148503661155701 -0.8236327171325684 
C 1.238036870956421 -0.4327009618282318 0.17860859632492065 
C 1.3594361543655396 0.9774559736251831 0.34459125995635986 
O 0.8533960580825806 1.6050182580947876 1.529858112335205 
C -1.1488523483276367 1.0603054761886597 -0.7628225088119507 
O -1.489091396331787 1.450646996498108 0.46145838499069214 
H -1.5484516620635986 -1.936987042427063 -1.3678572177886963 
H -0.16814762353897095 -2.7777366638183594 -0.5646027326583862 
H -1.3105716705322266 -1.791216492652893 0.4006057381629944 
H 2.071268320083618 -0.9110614061355591 -0.3470737636089325 
H 0.9452947974205017 -0.9916048049926758 1.078212857246399 
H 2.176948070526123 1.5500200986862183 -0.09449157118797302 
H 0.8950792551040649 0.9429767727851868 2.2571730613708496 
H -1.8965548276901245 0.4391181766986847 -1.2807669639587402 
H -0.5425159335136414 1.701139211654663 -1.3953449726104736 
H -0.6524472236633301 1.700321078300476 0.954637348651886 
