14

C -1.0114206075668335 0.36036840081214905 -1.0676366090774536 
C -0.0044411420822143555 0.4519251883029938 0.07785007357597351 
O 0.0651557445526123 1.7588679790496826 0.6449124813079834 
C -0.037913210690021515 -0.6446497440338135 1.051707148551941 
C 1.427341341972351 0.05120456963777542 -0.3379770815372467 
O 1.3671817779541016 -1.5491865873336792 0.1098690778017044 
H -2.0455482006073 0.5299553275108337 -0.7218725681304932 
H -0.9760021567344666 -0.6307653188705444 -1.5432660579681396 
H -0.7526464462280273 1.107439637184143 -1.8276535272598267 
H -0.8572500944137573 2.048192262649536 0.7788719534873962 
H 0.4290582835674286 -0.4733900725841522 2.0177862644195557 
H -0.7116345763206482 -1.5051021575927734 0.9828996062278748 
H 2.145209550857544 0.3980284631252289 0.4226912260055542 
H 1.0365127325057983 -1.9825708866119385 -0.7055021524429321 
