8

O -1.3721091747283936 0.4196632504463196 -0.5716304779052734 
C -0.0052626547403633595 0.4314225912094116 -0.4278213083744049 
C 0.7906544208526611 -0.6991360187530518 -1.0484659671783447 
C 0.8929062485694885 -0.8090705871582031 0.2738860845565796 
H -1.8140615224838257 0.5493887066841125 0.2881503403186798 
H 0.4648367762565613 1.4298731088638306 -0.45143628120422363 
H 0.3461860418319702 0.25117337703704834 0.8979417085647583 
H 0.6968499422073364 -1.5733144283294678 1.039375901222229 
