15

C -0.10442611575126648 -0.582309901714325 -0.6740697622299194 
C -0.620250940322876 0.7916303873062134 -0.023261122405529022 
C -1.8493714332580566 0.6106061935424805 0.8687017560005188 
C 0.6500002145767212 1.30973482131958 0.6941823959350586 
C 1.312529444694519 0.26187756657600403 0.15780192613601685 
C 2.4789645671844482 -0.4916706681251526 -0.03910188749432564 
O 2.3745107650756836 -1.5307576656341553 -0.7640901207923889 
H -0.5717761516571045 -1.4309977293014526 -0.15131531655788422 
H -0.35753241181373596 -0.6289905905723572 -1.7479304075241089 
H 1.1214765310287476 -1.2612766027450562 -0.9055566787719727 
H -0.8596845269203186 1.499969720840454 -0.8325902819633484 
H -1.637750506401062 -0.08691778779029846 1.69089937210083 
H -2.149106025695801 1.5726847648620605 1.3045915365219116 
H -2.687945604324341 0.2046644240617752 0.2824835181236267 
H 3.438076972961426 -0.2121770679950714 0.40150710940361023 
