11

C -2.1971700191497803 -1.9122225046157837 -0.47861436009407043 
C -1.331247329711914 -1.126599669456482 -0.11977048218250275 
C -0.20053593814373016 -0.28264477849006653 0.1538785845041275 
C 0.7185298800468445 0.26432085037231445 -0.771377444267273 
C 1.441602110862732 1.2142605781555176 -0.04521267116069794 
N 1.299232840538025 0.9999614357948303 1.2863543033599854 
N 0.14189790189266205 0.05175440013408661 1.4143933057785034 
H -2.938302993774414 -2.414214849472046 -1.087591290473938 
H 0.9104658961296082 -0.11019741743803024 -1.7789547443389893 
H 1.9489481449127197 2.10823130607605 -0.40504610538482666 
H 0.2065797746181488 1.207350492477417 1.8319412469863892 
