14

C -1.4606287479400635 -1.1556965112686157 -0.9820521473884583 
C -1.5710699558258057 0.20102129876613617 -0.45237454771995544 
C -0.10077153146266937 0.5917356610298157 -0.09140129387378693 
C 0.8601269125938416 0.3197072148323059 0.9942901134490967 
C 1.8734132051467896 0.11142878979444504 -0.08841853588819504 
O 0.9172756671905518 0.6092504262924194 -1.0785980224609375 
H -1.0868967771530151 -1.2779920101165771 -1.9990140199661255 
H -1.2169466018676758 -1.9660327434539795 -0.29267415404319763 
H -2.150520086288452 0.28467026352882385 0.4780867099761963 
H -1.9482914209365845 0.9357560873031616 -1.1756702661514282 
H 0.7195889353752136 -0.039506811648607254 2.009045124053955 
H 0.14550533890724182 1.5395293235778809 0.6547651886940002 
H 2.817342519760132 0.6721858978271484 -0.0937800481915474 
H 2.062243700027466 -0.9667088389396667 -0.2912270724773407 
