7

O 0.7203596234321594 1.069649577140808 -0.06297295540571213 
C 0.9022976756095886 -0.28736430406570435 0.03851958364248276 
N 0.017697233706712723 -1.1872076988220215 0.08644328266382217 
C -1.4447277784347534 0.3463064432144165 -0.053254157304763794 
N -0.7068718075752258 1.3325438499450684 -0.11020326614379883 
H 1.974219799041748 -0.49843040108680725 0.0741763561964035 
H -1.4525216817855835 -0.7859464287757874 0.028293151408433914 
