15

C 1.9701173305511475 -0.43331658840179443 0.20936177670955658 
C 0.8627067804336548 0.5926912426948547 0.355742484331131 
O 0.7643675804138184 1.3647093772888184 -0.8850585222244263 
C -0.32272791862487793 0.5178192853927612 -0.5000612735748291 
C -1.772386908531189 0.9430213570594788 -0.24508905410766602 
O -2.1929073333740234 -0.46381306648254395 -0.4561694264411926 
C -0.8732984662055969 -0.8475298881530762 -0.48264241218566895 
H 1.934018850326538 -1.1786186695098877 1.0129783153533936 
H 1.9105923175811768 -0.9446405172348022 -0.768470048904419 
H 2.9427525997161865 0.07530884444713593 0.2475534975528717 
H 0.057858873158693314 0.030318399891257286 1.4845162630081177 
H -2.0121703147888184 1.2571096420288086 0.7782048583030701 
H -2.2325637340545654 1.5895737409591675 -1.0000858306884766 
H -0.6186209917068481 -1.8522753715515137 -0.8245803713798523 
H -0.49316176772117615 -0.8338918685913086 1.158158779144287 
