9

O -1.167819619178772 1.7565473318099976 -0.012599358335137367 
C -0.6224214434623718 0.5895029902458191 -0.005371809005737305 
N 0.7205714583396912 0.6752328276634216 0.0007805611821822822 
C 1.176559567451477 -0.620681881904602 0.008088606409728527 
N 0.1942884474992752 -1.510906457901001 0.006897497922182083 
N -0.9539594054222107 -0.7246600985527039 -0.0017969957552850246 
H 0.24260462820529938 1.915919303894043 -0.006377224810421467 
H 2.2191851139068604 -0.9099679589271545 0.01435158122330904 
H -1.862594723701477 -1.1720329523086548 -0.004367859102785587 
