16

C -0.6311936378479004 1.3316901922225952 0.9144700169563293 
C 0.7243996858596802 0.6768835783004761 0.7382225394248962 
O 1.0282975435256958 -0.36421942710876465 1.4456756114959717 
C 0.7584254741668701 0.11706443876028061 -1.137130856513977 
C -0.10429587960243225 -0.9896390438079834 -1.374640941619873 
O -0.5370685458183289 -1.9291728734970093 0.41146141290664673 
H -0.8642299175262451 2.057600498199463 0.12652291357517242 
H -0.6604579091072083 1.860336422920227 1.8776761293411255 
H -1.439911127090454 0.5813027620315552 0.9461492896080017 
H 1.5500808954238892 1.384338140487671 0.5617268085479736 
H 0.1401020586490631 -1.3369890451431274 1.0293320417404175 
H 0.4431303143501282 1.0626612901687622 -1.57576322555542 
H 1.8219786882400513 -0.08526880294084549 -1.256484031677246 
H 0.31819644570350647 -1.9584453105926514 -1.6335463523864746 
H -1.1319962739944458 -0.8302802443504333 -1.6721135377883911 
H -1.4154574871063232 -1.57786226272583 0.5984424948692322 
