11

N 1.7405797243118286 -0.04754868894815445 -0.6638649106025696 
C 0.4324987232685089 -0.17715390026569366 -0.24104070663452148 
C -0.27677178382873535 0.7626563906669617 0.6061615347862244 
N -1.0192420482635498 -0.05739636719226837 1.6069899797439575 
C -1.756675362586975 -0.19192034006118774 0.526400625705719 
N -1.6526349782943726 -1.1519207954406738 -0.5046495199203491 
N -0.3763701617717743 -1.0910168886184692 -0.8503302931785583 
H 2.405564308166504 0.19969812035560608 0.06252977252006531 
H 2.0513246059417725 -0.8331661820411682 -1.2327942848205566 
H -0.004078526049852371 1.8006600141525269 0.8260536789894104 
H -1.5344514846801758 0.8639646768569946 -0.15497279167175293 
