13

N 1.6739482879638672 -0.8711739182472229 -0.09668008238077164 
C 0.4866752028465271 -0.6775738000869751 0.46668004989624023 
O 0.23997393250465393 -0.5595832467079163 1.8075611591339111 
C -0.6359058618545532 0.5858412384986877 1.49234938621521 
C -0.4701162278652191 0.32406315207481384 -0.022897914052009583 
C 0.16102014482021332 0.43664172291755676 -1.3846571445465088 
N -1.237154483795166 0.8079603910446167 -1.1444085836410522 
H 1.789432168006897 -1.8103766441345215 -0.5205621123313904 
H -1.6536792516708374 0.42309436202049255 1.8604270219802856 
H -0.22649958729743958 1.544675350189209 1.8285808563232422 
H 0.2343742996454239 -0.5508332848548889 -1.8853403329849243 
H 1.5247163772583008 0.25315383076667786 -0.8690547943115234 
H -1.8867849111557007 0.09411103278398514 -1.5319980382919312 
