12

O 0.47136345505714417 2.347738742828369 0.5093026161193848 
C 0.34211739897727966 1.0907869338989258 0.2843063473701477 
N 1.178824543952942 0.13124164938926697 -0.08260605484247208 
C 0.4296168088912964 -1.0944857597351074 -0.46847793459892273 
C -1.0269417762756348 -0.7230131030082703 -0.13213634490966797 
O -1.1916611194610596 -0.46828246116638184 1.2514066696166992 
C -1.082247257232666 0.7044966816902161 0.33798882365226746 
H 2.189124584197998 0.21129612624645233 -0.15565885603427887 
H 0.7862163186073303 -1.9652458429336548 0.09996186196804047 
H 0.5718738436698914 -1.2759929895401 -1.543144702911377 
H -1.8363910913467407 -1.2356921434402466 -0.6565175652503967 
H -0.7710255980491638 2.295997142791748 0.568459153175354 
