18

C -0.7996809482574463 0.0606817826628685 -1.8904533386230469 
C -0.015634071081876755 -0.47817856073379517 -0.8297032117843628 
C -0.890544056892395 -1.1019296646118164 0.45496222376823425 
C -0.8974609375 0.24541345238685608 1.1664361953735352 
C 0.37936946749687195 0.380045086145401 0.3483235239982605 
C 1.6958353519439697 0.09960250556468964 1.044158935546875 
H 0.16298648715019226 1.789621353149414 -1.5413310527801514 
H -0.6849123239517212 -0.2815680503845215 -2.916476249694824 
H -1.6598163843154907 0.689409613609314 -1.680214524269104 
H 0.7689307332038879 -1.1819829940795898 -1.144773244857788 
H -1.8496822118759155 -1.4541139602661133 0.07276579737663269 
H -0.35723569989204407 -1.8953112363815308 0.9896278381347656 
H -1.7158076763153076 0.8984149694442749 0.8445766568183899 
H -0.7909213900566101 0.22945018112659454 2.26318621635437 
H 0.5344990491867065 1.8570969104766846 -0.8654309511184692 
H 1.9478657245635986 0.949559211730957 1.6974663734436035 
H 1.6659096479415894 -0.8044044971466064 1.6753647327423096 
H 2.5062994956970215 -0.001806369749829173 0.3115141689777374 
