11

C -1.9416040182113647 -0.01322245318442583 -0.40106457471847534 
C -0.6705577373504639 0.7439693212509155 -0.45241591334342957 
C 0.43885523080825806 0.9325509667396545 -1.236476182937622 
C 0.8656218647956848 0.6848658323287964 0.12689423561096191 
O -0.07646279782056808 1.0745906829833984 1.032456636428833 
C 1.9052668809890747 -0.20643258094787598 0.5261829495429993 
C 2.8290817737579346 -0.9196872115135193 0.8782578110694885 
H -2.729405164718628 0.5887131094932556 0.07237209379673004 
H -1.805327296257019 -0.9235883951187134 0.20005175471305847 
H -2.240037679672241 -0.28603848814964294 -1.4196243286132812 
H 3.634455919265747 -1.5588537454605103 1.1790854930877686 
