10

O 0.9710415005683899 0.9252769947052002 1.6201225519180298 
C 0.4097314476966858 -0.19295735657215118 1.4653935432434082 
C -0.6567753553390503 -0.4407041370868683 0.4816703498363495 
C -0.05643492937088013 -0.08764997869729996 -1.2315105199813843 
N -1.0342212915420532 0.6359652876853943 -0.35628053545951843 
H 0.5305571556091309 -1.0267608165740967 2.18514347076416 
H -0.08583815395832062 -1.1749051809310913 -0.6996270418167114 
H -0.5265955328941345 -0.32995468378067017 -2.1921777725219727 
H 0.9790793657302856 0.2175455242395401 -1.2533352375030518 
H -0.5305439829826355 1.4741445779800415 -0.019398562610149384 
