11

N -1.7947434186935425 -0.24032336473464966 0.2304006665945053 
C -0.8509917259216309 0.618601381778717 -0.07983961701393127 
N 0.3466554582118988 -1.726133942604065 -0.6918433308601379 
N 1.1566344499588013 -0.9614169001579285 -0.18257105350494385 
C 1.0085673332214355 0.45032912492752075 0.18975438177585602 
C 0.135629341006279 1.360748529434204 -0.5109226703643799 
H -2.5291218757629395 -0.012972582131624222 0.8998412489891052 
H -1.5022554397583008 -1.2203277349472046 0.06445273011922836 
H 2.129469871520996 -1.2782946825027466 0.11624433100223541 
H 1.6439968347549438 0.7249752879142761 1.0369762182235718 
H 0.25815433263778687 2.2903847694396973 -1.0728299617767334 
