19

C -0.7758653163909912 2.1683239936828613 0.7096213102340698 
C 1.4449423551559448 0.9200987815856934 0.701599657535553 
C 0.6390979886054993 -0.25478100776672363 0.6039296388626099 
O -0.8553484082221985 0.20474080741405487 1.0166836977005005 
C 0.5121943950653076 -0.8996687531471252 -0.7816797494888306 
C -0.32947811484336853 -2.1761021614074707 -0.8496095538139343 
O 0.037588201463222504 0.10105452686548233 -1.714409351348877 
H -0.3137998878955841 2.631228446960449 1.573040246963501 
H -1.872145175933838 2.1201107501983643 0.8045040965080261 
H -0.40876829624176025 2.3855974674224854 -0.29067346453666687 
H 1.8277567625045776 1.2154839038848877 1.672669529914856 
H 1.8980945348739624 1.345059871673584 -0.20659448206424713 
H 0.8120935559272766 -1.0178405046463013 1.3817882537841797 
H -1.6100127696990967 -0.28332194685935974 0.6017733812332153 
H 1.539635181427002 -1.14659583568573 -1.1148176193237305 
H -0.3323853611946106 -2.5976600646972656 -1.860734462738037 
H -1.3788470029830933 -1.9875990152359009 -0.5712552666664124 
H 0.06420869380235672 -2.9377822875976562 -0.16166290640830994 
H -0.8989611268043518 0.20965233445167542 -1.514173150062561 
