14

C -0.499400794506073 1.9454315900802612 -0.5485408306121826 
C 0.23760144412517548 0.6494032740592957 -0.34452712535858154 
C -0.08898245543241501 -0.6943432688713074 -0.6915913820266724 
C 0.31448957324028015 -1.3882771730422974 0.5073114037513733 
C 0.5534132719039917 -0.01134168729186058 1.1581828594207764 
O -0.7938146591186523 0.35417747497558594 1.45913827419281 
H 0.03556596115231514 2.734536647796631 -0.009288097731769085 
H -0.43416935205459595 2.089252233505249 -1.6200203895568848 
H -1.568914532661438 2.0049028396606445 -0.29439303278923035 
H 0.6437910199165344 -2.810906171798706 -0.9848303198814392 
H -0.5178991556167603 -1.0561920404434204 -1.6106352806091309 
H -0.3467431664466858 -2.0220868587493896 1.1529520750045776 
H 1.06893789768219 -2.1996655464172363 0.15359151363372803 
H 1.3961249589920044 0.405109167098999 1.672650694847107 
