14

O 1.5716221332550049 0.3935960531234741 0.9464812874794006 
C 1.5681495666503906 0.3842308819293976 -0.36564990878105164 
C 0.13640718162059784 -0.5697322487831116 -1.009104609489441 
C -1.0070528984069824 0.009689458645880222 -0.40636032819747925 
C -1.4166879653930664 -0.31879377365112305 0.9718473553657532 
O -0.748856246471405 0.8644341826438904 1.3900381326675415 
H 0.44496503472328186 0.7737604379653931 1.2663452625274658 
H 2.40071439743042 -0.19048282504081726 -0.8114548921585083 
H 1.4201254844665527 1.3392937183380127 -0.8937205672264099 
H 0.21080268919467926 -0.44601210951805115 -2.0924556255340576 
H 0.3797280788421631 -1.585999608039856 -0.6854536533355713 
H -1.4949314594268799 0.8615840077400208 -0.8902947306632996 
H -0.9697288870811462 -1.2337816953659058 1.3922176361083984 
H -2.4952566623687744 -0.28178635239601135 1.187564492225647 
