12

O -1.2619361877441406 -0.8237764239311218 2.272897243499756 
C -1.0690851211547852 -0.43315139412879944 1.1603386402130127 
C -0.32197311520576477 0.5078960657119751 0.41136056184768677 
C 1.1095337867736816 0.8171893358230591 0.2630135416984558 
C 0.29145658016204834 0.3366152346134186 -0.9541399478912354 
C 0.5399374961853027 -0.9799307584762573 -1.487491250038147 
N 0.7346002459526062 -2.0529348850250244 -1.9164539575576782 
H -2.1510016918182373 -0.47315713763237 0.2797716557979584 
H -1.9082129001617432 0.49841782450675964 0.17227768898010254 
H 1.8410837650299072 0.11861010640859604 0.6712270379066467 
H 1.416253924369812 1.8637022972106934 0.2579878270626068 
H 0.04309826344251633 1.0862586498260498 -1.7077828645706177 
