11

C -1.0768731832504272 -0.48858076333999634 -0.25835567712783813 
C 0.13459064066410065 0.41378188133239746 0.03341624513268471 
O -0.21046824753284454 1.4247196912765503 0.9689481258392334 
C 1.3936206102371216 -0.2141302227973938 0.34799498319625854 
O 1.9630072116851807 -0.6795510053634644 -0.7090702056884766 
H -0.8442420363426208 -1.2487399578094482 -1.0163286924362183 
H -1.8998860120773315 0.13492044806480408 -0.6346721053123474 
H -1.4132368564605713 -0.9992530345916748 0.6580321192741394 
H 0.9750513434410095 -0.05484609305858612 -1.2424513101577759 
H -0.9066790342330933 1.9527559280395508 0.5284926295280457 
H 1.885115623474121 -0.24107660353183746 1.3239939212799072 
