11

C -1.1412707567214966 -0.2889237105846405 1.3544694185256958 
C -0.6340169310569763 0.991068959236145 1.2388874292373657 
C 0.04426058009266853 1.7715563774108887 0.5489258170127869 
C 0.5891373753547668 1.4199954271316528 -0.7258898019790649 
O 1.1250853538513184 1.9717843532562256 -1.6403486728668213 
C 0.4692365229129791 -0.38039445877075195 -0.8851239681243896 
C 1.2092784643173218 -1.1901899576187134 -1.4636764526367188 
H -0.7511062622070312 -0.9709091782569885 2.115562915802002 
H -0.3266196846961975 -0.6548113822937012 0.13648638129234314 
H -2.183638095855713 -0.5001024007797241 1.0626591444015503 
H 1.5996534824371338 -2.169074296951294 -1.7419520616531372 
