16

C 1.6421250104904175 -1.1941832304000854 0.7591760754585266 
C 0.7695595622062683 -0.30591240525245667 -0.08247262239456177 
O 1.4766992330551147 0.42786064743995667 -1.0321519374847412 
C -1.2089568376541138 1.3085037469863892 -1.414216160774231 
N -1.3713895082473755 1.0891215801239014 -0.0703909695148468 
C -1.8131136894226074 -0.21905629336833954 0.3440052568912506 
C -0.39653220772743225 0.26830101013183594 0.6186355948448181 
H 2.05458927154541 -2.0223331451416016 0.16103966534137726 
H 1.0882773399353027 -1.6374441385269165 1.598285436630249 
H 2.515707492828369 -0.6468554735183716 1.1841392517089844 
H 2.3941397666931152 0.5507728457450867 -0.6883666515350342 
H -2.0844202041625977 1.180904507637024 -2.0475568771362305 
H -0.37670695781707764 1.9234657287597656 -1.7341055870056152 
H -1.9174013137817383 -0.968336820602417 -0.44586479663848877 
H -2.5018727779388428 -0.26052942872047424 1.1892473697662354 
H -0.25820228457450867 0.5127627849578857 1.6828527450561523 
