10

O 2.6354448795318604 0.10363170504570007 0.1848563551902771 
C 1.3343963623046875 -0.1616133749485016 0.06934449821710587 
C 0.4877764880657196 1.0211657285690308 -0.008485622704029083 
N -0.7641153931617737 0.7837963104248047 -0.06413596123456955 
N -2.032686948776245 0.5827670097351074 -0.11201959103345871 
C -1.9968582391738892 -0.8091408014297485 -0.10001998394727707 
N -0.8271908164024353 -1.3990118503570557 -0.03248040750622749 
H 3.1172475814819336 -0.7485857605934143 0.21860668063163757 
H 0.9336143136024475 2.025083065032959 -0.014398278668522835 
H -2.9317500591278076 -1.3970818519592285 -0.14297568798065186 
