16

C 0.7576338052749634 1.1948901414871216 0.5660690069198608 
C 0.11936429142951965 -0.029302969574928284 -0.10643821954727173 
C 1.1676210165023804 -0.913025438785553 -0.7889493107795715 
C -0.8135597109794617 -0.8044630289077759 0.8387161493301392 
O -2.1719110012054443 -0.30691802501678467 0.5105674266815186 
C -2.11653470993042 0.32998669147491455 -0.6746346950531006 
N -0.8650549650192261 0.46771106123924255 -1.1511250734329224 
H 1.246870517730713 1.828608512878418 -0.18497715890407562 
H 1.51139235496521 0.878250777721405 1.3007316589355469 
H -0.004260828718543053 1.7927967309951782 1.0853480100631714 
H 1.8773068189620972 -1.3124533891677856 -0.05015040934085846 
H 0.6891569495201111 -1.7558635473251343 -1.3051813840866089 
H 1.7291640043258667 -0.3301827907562256 -1.5302855968475342 
H -0.8024483323097229 -1.885831594467163 0.6533182263374329 
H -0.6475916504859924 -0.6038151979446411 1.9019702672958374 
H -1.66157066822052 1.4698350429534912 -1.0711257457733154 
