16

C -1.353615641593933 -1.2380861043930054 0.636099100112915 
C -1.1709249019622803 -0.09138075262308121 -0.28918346762657166 
N 0.2696388363838196 1.5314209461212158 -0.31332308053970337 
C -0.0317615270614624 0.2801518440246582 -1.1192080974578857 
C 1.3184581995010376 -0.3138274848461151 -0.7195716500282288 
C 1.3339282274246216 0.704220712184906 0.5237694382667542 
O 0.9825188517570496 0.27637845277786255 1.6757832765579224 
H -0.44856128096580505 -1.8353495597839355 0.7596662640571594 
H -1.6887952089309692 -0.9134440422058105 1.6300278902053833 
H -2.167367935180664 -1.8709841966629028 0.2239009141921997 
H -2.049100637435913 0.5460894703865051 -0.43552035093307495 
H -0.4838961660861969 1.988079309463501 0.22005201876163483 
H -0.2417202740907669 0.456298291683197 -2.1822948455810547 
H 2.0898995399475098 -0.09247378259897232 -1.4666281938552856 
H 1.340645432472229 -1.370147466659546 -0.4388561248779297 
H 2.235417366027832 1.3731944561004639 0.4763738214969635 
