14

O -0.8538330793380737 1.514769196510315 1.9775121212005615 
C -0.4376048743724823 0.8776566982269287 1.038999080657959 
C 1.044081687927246 0.624542772769928 0.6668370962142944 
C 1.1741520166397095 -0.799407422542572 0.21799030900001526 
C 0.4694886803627014 -1.1305503845214844 -0.911595344543457 
C -0.879468560218811 -0.57528156042099 -1.1586077213287354 
N -1.312724232673645 0.4342341125011444 -0.020946310833096504 
H 1.676558256149292 0.8771474361419678 1.5266629457473755 
H 1.2889747619628906 1.324342131614685 -0.15367579460144043 
H 1.8552244901657104 -1.5088732242584229 0.689361572265625 
H 0.6712289452552795 -2.0823190212249756 -1.4148763418197632 
H -0.9881211519241333 -0.1060103103518486 -2.156702995300293 
H -1.7458791732788086 -0.6147286295890808 0.04287707060575485 
H -1.9620777368545532 1.1644786596298218 -0.34383583068847656 
