10

N -0.0726311132311821 0.4464462399482727 1.8821932077407837 
C -0.18753771483898163 0.15069341659545898 0.5677117705345154 
C -0.7761850357055664 -0.6145877838134766 -0.4545263648033142 
N 0.26074668765068054 -0.6599574089050293 -1.3838577270507812 
N 1.19754159450531 0.2601352035999298 -1.2256067991256714 
N 0.8789074420928955 0.801114559173584 -0.03372819349169731 
H 1.1401355266571045 1.096243977546692 1.1811023950576782 
H -0.9603244066238403 0.6832465529441833 2.3607351779937744 
H -1.804498553276062 -0.8569175601005554 -0.7216039896011353 
H 0.32384559512138367 -1.3064172267913818 -2.1724190711975098 
