13

C -1.3553404808044434 0.03994857147336006 0.7458533644676208 
C -0.4156274199485779 -1.0253551006317139 -0.7317914962768555 
C 0.26104360818862915 0.09620651602745056 -1.4397956132888794 
N 0.21406666934490204 0.5548436641693115 -0.06433283537626266 
C 1.367748737335205 0.4065015912055969 0.7244928479194641 
O 2.510040283203125 0.34145793318748474 0.3022506535053253 
H -1.1304945945739746 0.7212563157081604 1.5824171304702759 
H -1.6377859115600586 -0.9304465651512146 1.1661049127578735 
H -2.1466312408447266 0.4521407186985016 0.12208162993192673 
H 0.35116294026374817 -1.7279549837112427 -0.3470783531665802 
H 1.296015739440918 -0.05350179225206375 -1.7562826871871948 
H -0.33059588074684143 0.7134090662002563 -2.1235849857330322 
H 1.116830587387085 0.42852112650871277 1.8048573732376099 
