16

C 0.5352667570114136 -1.4840058088302612 1.0653787851333618 
C 0.2044798731803894 -1.1538846492767334 -0.3502090573310852 
O 1.2811543941497803 -0.5729377865791321 -1.0231060981750488 
C -1.1530648469924927 0.7784990072250366 -0.41947805881500244 
C -0.3744487166404724 1.8092690706253052 0.30982503294944763 
O 0.9590871334075928 1.8778423070907593 0.05872737243771553 
H 1.017435908317566 -0.6247601509094238 1.5581694841384888 
H 1.2290866374969482 -2.336015462875366 1.151657223701477 
H -0.3779691457748413 -1.725010871887207 1.630394458770752 
H -0.47430598735809326 -1.7802318334579468 -0.9197641015052795 
H 1.2051935195922852 -0.7320499420166016 -1.9845319986343384 
H -1.0029696226119995 0.582764744758606 -1.4901336431503296 
H -1.986070990562439 0.23929765820503235 0.03815640136599541 
H -0.6962497234344482 2.0773723125457764 1.3175387382507324 
H -1.5565975904464722 1.9930838346481323 -0.5112074613571167 
H 1.1899727582931519 1.050767183303833 -0.43141651153564453 
