13

C -0.6491408348083496 0.9738864898681641 -1.7417703866958618 
C 0.16687767207622528 0.9687821865081787 -0.5231455564498901 
N 0.6994107365608215 1.5470833778381348 0.4272766709327698 
C -0.07052034884691238 0.3650897145271301 1.1892075538635254 
C 0.39287519454956055 -0.9124084115028381 0.9149301648139954 
O 0.7773845791816711 -1.7606637477874756 1.9439120292663574 
N 0.599999189376831 -1.2121447324752808 -0.34643712639808655 
H -1.714046597480774 0.8983199000358582 -1.4843436479568481 
H -0.35722264647483826 0.09966444969177246 -2.343993663787842 
H -0.4918176829814911 1.8952839374542236 -2.3175806999206543 
H -0.5827358365058899 0.7722444534301758 2.049431324005127 
H 0.2052416056394577 -1.5127017498016357 2.718766212463379 
H 1.0236947536468506 -2.1224358081817627 -0.48625293374061584 
