17

C -1.7385210990905762 -0.5203467011451721 -0.012461824342608452 
C -1.821561336517334 0.9109721183776855 -0.4788578748703003 
C -0.4722912609577179 0.3150935471057892 -0.13039377331733704 
C 0.7930002212524414 -0.8484795093536377 -1.0072057247161865 
C 1.5313615798950195 -1.011150598526001 0.1870967596769333 
C 1.8591824769973755 0.34146252274513245 0.7558474540710449 
C 0.44058600068092346 0.8656701445579529 0.7854813933372498 
H -1.9367296695709229 -1.318530559539795 -0.7313222289085388 
H -2.058469533920288 -0.7518938183784485 1.005066990852356 
H -2.0224435329437256 1.067468523979187 -1.541069507598877 
H -2.2645668983459473 1.6671583652496338 0.17342892289161682 
H 0.2518681585788727 -1.6999571323394775 -1.4269883632659912 
H 1.1968249082565308 -0.1762808859348297 -1.7727619409561157 
H 1.2643632888793945 -1.8155156373977661 0.8746035695075989 
H 2.5118818283081055 0.9493105411529541 0.10081209242343903 
H 2.316476583480835 0.3226153254508972 1.7562590837478638 
H 0.14721062779426575 1.6841578483581543 1.4520838260650635 
