19

C -0.6825156211853027 -1.1290465593338013 -1.0273375511169434 
C 0.14306388795375824 0.13021601736545563 -0.749549388885498 
C 0.8671616315841675 0.5752066969871521 -2.0361521244049072 
C 1.1562832593917847 -0.03493557497859001 0.369252473115921 
O 1.015080451965332 -1.2459602355957031 1.2514361143112183 
C 0.9319841861724854 -0.03243236988782883 1.841057538986206 
C -1.2735246419906616 0.5940138697624207 2.094266891479492 
H -0.02758541889488697 -1.9396761655807495 -1.3971034288406372 
H -1.4570258855819702 -0.9455625414848328 -1.780512809753418 
H -1.1946204900741577 -1.5036826133728027 -0.13703788816928864 
H -0.5301096439361572 0.9518904685974121 -0.4392392337322235 
H 0.1489117294549942 0.8031489849090576 -2.827181100845337 
H 1.4741401672363281 1.482679009437561 -1.872653603553772 
H 1.5498688220977783 -0.2230365127325058 -2.383305311203003 
H 2.202345132827759 0.1602974236011505 0.12540721893310547 
H 0.3219418525695801 0.4110564589500427 2.677898406982422 
H -1.571972131729126 0.6938212513923645 3.143728733062744 
H -1.7329905033111572 -0.2751162648200989 1.6207587718963623 
H -1.340437412261963 1.5271186828613281 1.5262658596038818 
