16

C -1.4486751556396484 -1.27689528465271 0.5598658919334412 
C -1.0498071908950806 -1.28037691116333 -0.9066500067710876 
N -1.1123332977294922 0.13870275020599365 0.5408905148506165 
C -0.7226924300193787 1.2712639570236206 -0.2693161964416504 
C 0.35450300574302673 0.31199079751968384 -0.004304027184844017 
C 1.6175428628921509 0.4028787612915039 0.8224572539329529 
C 1.6768430471420288 0.03456386178731918 -0.6697835326194763 
H -2.5249783992767334 -1.4145549535751343 0.7293692827224731 
H -0.8112554550170898 -1.8205785751342773 1.2617088556289673 
H -1.8248202800750732 -0.7368593215942383 -1.463145136833191 
H -0.7066471576690674 2.2102560997009277 0.28873515129089355 
H -1.1464406251907349 1.3384159803390503 -1.265249252319336 
H 1.7820169925689697 -0.3695099353790283 1.5790120363235474 
H 1.9644391536712646 1.4030168056488037 1.1069073677062988 
H 2.045553684234619 0.7903288006782532 -1.3681515455245972 
H 1.9067515134811401 -1.0026428699493408 -0.9423466324806213 
