13

N -1.9228907823562622 0.5345544815063477 -0.9423974752426147 
C -0.6912446618080139 0.36905401945114136 -0.3234402537345886 
O -0.11264282464981079 -0.8035597801208496 -0.586620569229126 
C -0.1499488651752472 1.350274920463562 0.5064634680747986 
O 1.0473451614379883 -0.2318570464849472 1.2853351831436157 
C 1.3318278789520264 -0.7995281219482422 0.10398220270872116 
N 1.915970802307129 -1.9006301164627075 0.6969905495643616 
H -2.6267027854919434 -0.16107583045959473 -0.7070070505142212 
H -1.8621289730072021 0.6339249014854431 -1.9783204793930054 
H 0.7993506193161011 1.8270199298858643 0.26756972074508667 
H -0.8048092722892761 1.8849769830703735 1.2063237428665161 
H 1.9168446063995361 -0.24600817263126373 -0.6497684121131897 
H 1.1590291261672974 -2.457146167755127 1.1208891868591309 
