14

N 1.6256372928619385 -1.7099653482437134 0.13346333801746368 
C 0.878002405166626 -0.6985283493995667 -0.04769839346408844 
O 1.009137749671936 0.23528176546096802 -1.0941451787948608 
C 0.2028023600578308 1.3913475275039673 -0.7807276844978333 
C -0.6617636680603027 0.9540199041366577 0.3701716363430023 
C -1.2138923406600952 -1.2692614793777466 -1.910412311553955 
C -0.263261616230011 -0.2658032774925232 0.7755630016326904 
H 2.353886365890503 -1.7631537914276123 -0.5893266797065735 
H -0.35975751280784607 1.6848995685577393 -1.6768383979797363 
H 0.8723493814468384 2.22377872467041 -0.5034027099609375 
H -1.461257815361023 1.5627373456954956 0.7844242453575134 
H -0.4593433737754822 -1.1703205108642578 -2.7350828647613525 
H -1.777209758758545 -0.3009784519672394 -2.0173583030700684 
H -0.6609944105148315 -0.8758666515350342 1.5793553590774536 
