16

C 0.045024432241916656 2.294126272201538 -0.12615124881267548 
C -0.6558734178543091 1.1088759899139404 0.5509124398231506 
N 0.17529626190662384 0.40953370928764343 1.6054713726043701 
C 0.16030791401863098 -0.7654737234115601 0.805420458316803 
O 0.7778529524803162 -1.84579336643219 0.9680774211883545 
C -0.6866756081581116 -0.23706893622875214 -0.1926216185092926 
C 0.3945360779762268 -2.5151519775390625 -1.1263043880462646 
H 0.036868881434202194 3.1918156147003174 0.5127724409103394 
H 1.085693359375 2.037039041519165 -0.3504524827003479 
H -0.45501187443733215 2.536358594894409 -1.0738476514816284 
H -1.6245572566986084 1.417311668395996 0.9751728177070618 
H 1.0701806545257568 0.8391126394271851 1.8224748373031616 
H -1.622265100479126 -0.6697571277618408 -0.5781488418579102 
H -0.5040180087089539 -2.3600213527679443 -1.7224409580230713 
H 0.51803058385849 -3.458667516708374 -0.606870174407959 
H 1.2846100330352783 -1.9822394847869873 -1.4634641408920288 
