9

N -1.8606796264648438 0.22598297894001007 -0.016502289101481438 
C -0.6739001870155334 0.7739344835281372 -0.22790926694869995 
N 0.3755723237991333 1.258760690689087 -0.5760347843170166 
C 1.8340532779693604 0.07631666213274002 0.21475987136363983 
N 1.4496771097183228 -1.075098991394043 -0.010429609566926956 
O 0.37265488505363464 -1.631450891494751 -0.2892032265663147 
H -1.8897919654846191 -0.7825659513473511 -0.23731867969036102 
H -2.3629603385925293 0.515902042388916 0.8221723437309265 
H 2.7553744316101074 0.6382187604904175 0.320465624332428 
