11

N 0.621831476688385 0.9702997803688049 0.9435175061225891 
C 1.4251620769500732 0.033787619322538376 0.5085257291793823 
C 0.9955973625183105 -1.213016390800476 -0.11064406484365463 
N -0.22450512647628784 -1.4012398719787598 -0.6448447704315186 
C -1.1671487092971802 -0.4545168876647949 -0.5938819646835327 
N -1.1596410274505615 0.6102607846260071 -1.4443436861038208 
N -0.9931784868240356 1.7382326126098633 -1.66110360622406 
H -0.23954208195209503 0.6589005589485168 1.4549082517623901 
H 1.1120636463165283 1.6708630323410034 1.5288996696472168 
H 1.6773556470870972 -2.0734596252441406 -0.041554149240255356 
H -2.047994613647461 -0.540111780166626 0.0605209581553936 
