12

C -1.4018871784210205 -1.1854372024536133 0.18321141600608826 
N -0.2727489173412323 -0.3361005187034607 -0.19905859231948853 
C 1.9564658403396606 -0.2118123173713684 0.2174714356660843 
C 1.9190573692321777 1.022928237915039 -0.2802416682243347 
N 0.7222112417221069 1.7484898567199707 -0.475253164768219 
C -0.32751402258872986 1.0078670978546143 -0.13710297644138336 
H -1.2622625827789307 -1.5799654722213745 1.2056244611740112 
H -1.4871538877487183 -2.0242269039154053 -0.5173661708831787 
H -2.3469882011413574 -0.625964879989624 0.16719527542591095 
H 0.8491557836532593 -0.8458964824676514 0.09904298186302185 
H 2.8161277770996094 1.5364505052566528 -0.6493391990661621 
H -1.164463758468628 1.493667721748352 0.38581621646881104 
