10

C -1.7058361768722534 0.06323420256376266 0.03790916129946709 
C -0.24315200746059418 -0.29542410373687744 -0.12764130532741547 
N 0.6400679349899292 0.716178297996521 0.3111676573753357 
C 1.824012279510498 0.24095486104488373 0.09501681476831436 
N 2.637484073638916 -0.6231126189231873 -0.28725481033325195 
O 0.13741590082645416 -1.3684437274932861 -0.6030892729759216 
H -1.9048793315887451 0.31091558933258057 1.0886465311050415 
H -2.339749574661255 -0.7686882019042969 -0.28266391158103943 
H -1.9296555519104004 0.9585097432136536 -0.5575783252716064 
H 2.8806607723236084 0.7501430511474609 0.30829745531082153 
