15

O 1.4696811437606812 1.1959236860275269 -0.14742104709148407 
C 1.8139458894729614 -0.1258157342672348 -0.44317159056663513 
C 0.684634804725647 -0.7955889701843262 0.25094369053840637 
O -0.20922568440437317 0.6386775970458984 1.5576236248016357 
C -1.3199117183685303 0.21537163853645325 0.7465672492980957 
C -1.2923252582550049 0.5420669913291931 -0.7189616560935974 
C -0.7418555617332458 -0.7812798619270325 -0.2190527766942978 
H 0.4970715343952179 1.1562632322311401 0.9299668669700623 
H 1.7773092985153198 -0.3606267273426056 -1.5301413536071777 
H 2.7992331981658936 -0.45170801877975464 -0.053032390773296356 
H 0.8525168895721436 -1.385638952255249 1.1548887491226196 
H -2.246739625930786 0.10068725794553757 1.304494857788086 
H -0.6003912687301636 1.2928719520568848 -1.09272038936615 
H -2.2525343894958496 0.46670448780059814 -1.2297751903533936 
H -1.184068202972412 -1.7319865226745605 -0.5286986231803894 
