13

C -1.2721478939056396 -1.0613728761672974 0.8571982979774475 
O -0.18560972809791565 -0.25383251905441284 1.3938789367675781 
C 0.6418188810348511 0.4252391755580902 0.6283031702041626 
C 1.9668982028961182 -0.060607876628637314 0.3903173506259918 
N 1.678979516029358 -0.459486186504364 -0.8053200244903564 
C 0.1900872141122818 0.9627230763435364 -0.929093062877655 
N -1.0165302753448486 0.8653134703636169 -1.4255411624908447 
H -1.4081995487213135 -1.9047183990478516 1.5446414947509766 
H -2.181046724319458 -0.43826767802238464 0.8579099178314209 
H -1.0376392602920532 -1.3962349891662598 -0.14890357851982117 
H 2.9076201915740967 -0.03642774000763893 0.9499660134315491 
H 0.910764217376709 1.714604377746582 -1.2550374269485474 
H -1.1949946880340576 1.6430679559707642 -2.0583198070526123 
