12

O 0.6990795135498047 -1.2455217838287354 1.9351197481155396 
C 0.8836526274681091 -1.3229907751083374 0.5281354188919067 
C 0.3074754774570465 -0.11291931569576263 -0.16559270024299622 
N 0.9469060301780701 0.4913109242916107 -1.1728273630142212 
O 0.23320339620113373 1.658728837966919 -1.4184221029281616 
C -0.9870582818984985 1.5465348958969116 -0.7099047303199768 
C -0.9638280272483826 0.47245651483535767 0.23356486856937408 
H -0.23788851499557495 -0.9940940737724304 2.0736098289489746 
H 1.9679787158966064 -1.3636256456375122 0.31603434681892395 
H 0.4221481382846832 -2.234804630279541 0.10561869293451309 
H -1.5607147216796875 2.471813678741455 -0.7222772240638733 
H -1.7109544277191162 0.6331112384796143 -1.003058671951294 
