21

C -1.0983185768127441 2.2352850437164307 -0.40435484051704407 
C -0.7376009821891785 0.812739908695221 0.06340473890304565 
C -1.4775311946868896 -0.22631806135177612 -0.7786022424697876 
C 0.8105595707893372 0.6323640942573547 0.002658696612343192 
C 1.4415568113327026 -0.6145436763763428 0.5281025767326355 
C 1.5178953409194946 -1.8312325477600098 -0.22640810906887054 
O 0.025628631934523582 -1.4819958209991455 1.6871581077575684 
H -0.7859839200973511 2.4064857959747314 -1.4505348205566406 
H -0.6398013830184937 3.005488395690918 0.22350691258907318 
H -2.1902148723602295 2.382519483566284 -0.37564408779144287 
H -1.0016751289367676 0.6922750473022461 1.118674874305725 
H -2.569688081741333 -0.12390655279159546 -0.6775754690170288 
H -1.244207501411438 -1.2581270933151245 -0.48046743869781494 
H -1.2176594734191895 -0.13640108704566956 -1.847148060798645 
H 1.1337577104568481 0.7343956828117371 -1.0519039630889893 
H 1.279998779296875 1.4747732877731323 0.540104866027832 
H 2.1248035430908203 -0.4929807782173157 1.3786498308181763 
H 1.1533976793289185 -1.7914037704467773 -1.2660796642303467 
H 2.3883752822875977 -2.4789605140686035 -0.09068576246500015 
H 0.5610849261283875 -2.1572155952453613 0.6183196902275085 
H 0.5256232619285583 -1.7832409143447876 2.4888241291046143 
