8

O -0.10011513531208038 0.5217857956886292 1.413463830947876 
C -0.17538940906524658 0.8914370536804199 0.010932925157248974 
C 0.6517277956008911 -0.02485492080450058 -0.7313970327377319 
N 1.0585401058197021 -1.0765972137451172 0.05842379108071327 
C -0.10018340498209 -0.714314877986908 0.6948822736740112 
H -0.7228094339370728 1.7978929281234741 -0.25572869181632996 
H 0.48509135842323303 -0.21668393909931183 -1.8029371500015259 
H -1.0968618392944336 -1.1786648035049438 0.6123600006103516 
