13

N -1.1353743076324463 1.171144962310791 -0.33050552010536194 
C -0.7020898461341858 1.0922173261642456 0.8716891407966614 
O -0.6332957744598389 1.616546869277954 1.9581705331802368 
C 0.44297319650650024 -0.49900034070014954 1.0064640045166016 
C 0.5416908860206604 -1.2744877338409424 -0.1436726152896881 
O 0.3992069363594055 -0.08992378413677216 -1.926992654800415 
H -2.1079113483428955 1.5045338869094849 -0.36890000104904175 
H -0.3611062467098236 0.4280180037021637 -1.4229294061660767 
H 1.3744059801101685 -0.07985445857048035 1.4172238111495972 
H -0.21620365977287292 -0.8828281760215759 1.7885222434997559 
H -0.31504496932029724 -1.817169427871704 -0.491743266582489 
H 1.5010111331939697 -1.5777933597564697 -0.5735387802124023 
H 1.2117377519607544 0.40859654545783997 -1.7837878465652466 
