17

C -1.503773808479309 -0.14093536138534546 -0.05751881003379822 
C -0.6859996318817139 -1.3828896284103394 0.20666900277137756 
O 0.22023418545722961 -1.8011497259140015 -0.5871173143386841 
C 1.745854377746582 -0.4483893811702728 -0.3891390860080719 
C 1.1561245918273926 0.27915725111961365 0.7903822064399719 
C 0.4754336476325989 1.425551176071167 0.21538186073303223 
C -0.6669583320617676 1.0683461427688599 -0.6653003692626953 
H -2.018407106399536 0.16324454545974731 0.8674472570419312 
H -2.279978036880493 -0.35026654601097107 -0.8092147707939148 
H 0.38100317120552063 -0.44865256547927856 1.278465986251831 
H -0.9866036772727966 -1.9988417625427246 1.0765998363494873 
H 2.728532075881958 -0.919708788394928 -0.27315616607666016 
H 1.5429322719573975 -0.08663994818925858 -1.3889999389648438 
H 1.9091665744781494 0.529803991317749 1.5495573282241821 
H 0.617207407951355 2.4363441467285156 0.5940543413162231 
H -0.3303879201412201 0.7059217095375061 -1.6499971151351929 
H -1.3283376693725586 1.9245346784591675 -0.8543262481689453 
