12

O 1.0031609535217285 -1.28969407081604 1.8817558288574219 
C 1.5331774950027466 -0.6152704358100891 0.36202776432037354 
C 0.24797698855400085 -0.2766035795211792 -0.22547073662281036 
N -0.7652003765106201 0.253327876329422 0.5261111259460449 
N -1.4389569759368896 1.00594162940979 -0.38704097270965576 
C -0.9292311072349548 0.7686223983764648 -1.6357545852661133 
N 0.016573946923017502 -0.16130128502845764 -1.5872199535369873 
H 0.027984490618109703 -1.079162359237671 1.850623369216919 
H 1.3354679346084595 -1.9501656293869019 1.1875977516174316 
H 2.142927408218384 0.2532264292240143 0.6407557725906372 
H -1.9570032358169556 1.808471918106079 -0.06577493250370026 
H -1.2168773412704468 1.2826069593429565 -2.547610282897949 
