14

C -0.25549909472465515 -0.6853857040405273 -1.4965922832489014 
O -0.8274612426757812 -1.6058189868927002 -0.4950125515460968 
C -0.37385424971580505 -0.6744105219841003 0.36751967668533325 
C -0.9106089472770691 0.6818873882293701 0.6776317358016968 
C 0.559939980506897 1.144844889640808 0.4503422677516937 
C 1.0153696537017822 -0.3025915324687958 0.7868397235870361 
H -1.0728001594543457 -0.35988911986351013 -2.1489858627319336 
H 0.5263540148735046 -1.2398713827133179 -2.0205726623535156 
H -1.215010643005371 0.7697358131408691 1.7265586853027344 
H -1.6783779859542847 1.130255103111267 0.020606843754649162 
H 0.9134129881858826 1.9269704818725586 1.1450307369232178 
H 0.2931215465068817 0.43443772196769714 -1.0759735107421875 
H 1.1650222539901733 -0.4957179129123688 1.8594017028808594 
H 1.8603914976119995 -0.7244465947151184 0.2032054364681244 
