13

C -1.3166265487670898 0.5152947306632996 0.5638177394866943 
C 0.7696149945259094 -0.2517908215522766 1.0737895965576172 
O 0.8435651659965515 -1.244850516319275 0.2104739546775818 
C 0.442739874124527 -0.8984702825546265 -1.0985233783721924 
C 1.0726346969604492 0.23933184146881104 -1.676509976387024 
N 1.374171495437622 1.298595905303955 -2.1390798091888428 
H -0.9951733946800232 1.5662175416946411 0.6323633193969727 
H -2.263495445251465 0.47842463850975037 -0.003233622293919325 
H -1.570095419883728 0.139657124876976 1.5716724395751953 
H 1.1624808311462402 0.74004065990448 0.8278637528419495 
H 0.7436333298683167 -0.567743718624115 2.116713523864746 
H 0.4385940432548523 -1.8200383186340332 -1.6881084442138672 
H -0.7020437121391296 -0.19466885924339294 -0.39123907685279846 
