12

O 1.3484959602355957 0.026345642283558846 -0.7282925248146057 
C 0.7772068381309509 1.038362979888916 0.2425125390291214 
C -0.7140467762947083 0.8669707775115967 0.22853265702724457 
C -0.861124575138092 -0.6638997793197632 0.33175235986709595 
C 0.31258463859558105 -1.1500041484832764 -0.46033775806427 
O 0.7204439043998718 -2.223703384399414 -0.8265770077705383 
H 2.1750919818878174 -0.43183350563049316 -0.4788772463798523 
H 1.1904667615890503 2.0086162090301514 -0.02781527489423752 
H -1.2125481367111206 1.2531012296676636 -0.6745386719703674 
H -1.1631547212600708 1.3450089693069458 1.11642324924469 
H -1.7977465391159058 -1.0602960586547852 -0.09624361991882324 
H -0.7756693959236145 -1.0086687803268433 1.3734612464904785 
