12

O -1.024135947227478 -2.6581220626831055 0.6125801205635071 
C -1.353171467781067 -1.6244741678237915 0.17081113159656525 
C -1.2638458013534546 -0.3118419945240021 -0.24864338338375092 
C 0.06042086333036423 0.5678710341453552 0.8842963576316833 
N 0.792640745639801 1.3725931644439697 0.07330802083015442 
C 1.754280924797058 0.7667611241340637 -0.7091422080993652 
O 1.6748838424682617 -0.43390050530433655 -1.0585905313491821 
H -2.194035291671753 0.24814550578594208 -0.09171605110168457 
H -0.7860503196716309 -0.11284246295690536 -1.233789086341858 
H 0.5984455347061157 -0.30874544382095337 1.297450304031372 
H -0.6704736948013306 1.0073109865188599 1.557198405265808 
H 2.411040782928467 1.4872448444366455 -1.2537628412246704 
