12

N -2.1799073219299316 -0.315748393535614 -0.1962084025144577 
C -0.8490024209022522 -0.08356686681509018 -0.04216929152607918 
C 0.1764843463897705 -1.013879656791687 0.20586998760700226 
C 1.3336471319198608 -0.2191876322031021 0.18630018830299377 
O 2.619924783706665 -0.3462510108947754 0.012339793145656586 
C 0.9964500069618225 1.1892598867416382 0.09340710192918777 
O -0.47074320912361145 1.1936811208724976 -0.14602689445018768 
H -2.7380266189575195 0.4091167449951172 -0.6349823474884033 
H -2.4962854385375977 -1.2694002389907837 -0.32244259119033813 
H 0.05409218370914459 -2.0920348167419434 0.18312564492225647 
H 2.393984079360962 0.8986712694168091 -0.3969966769218445 
H 1.1318578720092773 1.7411106824874878 1.0307785272598267 
