11

O -0.5886492133140564 -0.8856701254844666 -1.1950809955596924 
C 0.16269250214099884 -0.8245280981063843 0.034014154225587845 
C -0.5024225115776062 -0.55596524477005 1.3075244426727295 
C 0.4669041335582733 0.6996187567710876 0.3565562963485718 
O -0.10691238194704056 1.6099094152450562 -0.5083876252174377 
H 0.08160872757434845 -0.9885202050209045 -1.9059680700302124 
H 1.0319936275482178 -1.5042550563812256 0.04435431957244873 
H 0.05588129907846451 0.8508360981941223 1.4554868936538696 
H -1.5437687635421753 -0.24795937538146973 1.032719612121582 
H 1.553786277770996 0.7945392727851868 0.5280250310897827 
H -0.6111137270927429 1.0519946813583374 -1.1492440700531006 
