13

C 0.8014413714408875 0.32853156328201294 1.7621495723724365 
O 1.0569709539413452 -0.8764140605926514 1.1218489408493042 
C 0.2659582495689392 -1.1583878993988037 -0.004147931933403015 
C -1.0376008749008179 -0.5337714552879333 -0.46789857745170593 
O -1.3397499322891235 0.7737795114517212 0.061060644686222076 
C -0.011647605337202549 1.1793116331100464 -0.2860824465751648 
C 0.29043376445770264 -0.06695201992988586 -1.0651966333389282 
H 0.8595996499061584 1.2232731580734253 0.8458718061447144 
H -0.2852360010147095 0.36004167795181274 1.9787688255310059 
H 0.4159700572490692 -2.1779117584228516 -0.36347636580467224 
H -1.8733497858047485 -1.092470407485962 -0.8895800113677979 
H 0.07157856225967407 2.200549364089966 -0.667143702507019 
H 0.7674495577812195 -0.15557032823562622 -2.0381391048431396 
