13

C 0.12692882120609283 0.7024479508399963 -1.4346843957901 
C 0.1611156314611435 0.7401706576347351 0.0546390525996685 
O 1.1601450443267822 -1.3963661193847656 0.09513065963983536 
C -0.9394536018371582 0.3246630132198334 0.8964752554893494 
C -0.4532286524772644 -0.9494291543960571 1.7203904390335083 
N 0.685488224029541 -1.4347152709960938 1.6484769582748413 
H -0.7576831579208374 0.16554981470108032 -1.8081333637237549 
H 0.08142034709453583 1.7253252267837524 -1.8383409976959229 
H 1.014671802520752 0.22021256387233734 -1.8567371368408203 
H 1.0331820249557495 1.1840976476669312 0.5565555691719055 
H 0.9081931114196777 -2.3522703647613525 -0.1092403456568718 
H -1.1720179319381714 1.0232748985290527 1.7118306159973145 
H -1.8487616777420044 0.04703895002603531 0.36363717913627625 
