12

C 1.9123554229736328 -0.4070926606655121 0.28932368755340576 
N 0.36559709906578064 1.0286682844161987 -0.07893571257591248 
C -0.671083390712738 0.2615165412425995 -0.05754147097468376 
N -0.75278240442276 -1.0225915908813477 0.22467178106307983 
C -1.954155683517456 1.0666074752807617 -0.4533047676086426 
O -2.945376396179199 0.4991682171821594 -0.847592830657959 
H 2.356956958770752 -0.3770409822463989 -0.7059158682823181 
H 2.196165084838867 0.46982935070991516 0.8775941133499146 
H 2.2874808311462402 -1.2756681442260742 0.8719947934150696 
H -1.625538945198059 -1.4947794675827026 -0.024855950847268105 
H 0.8094893097877502 -0.9288845062255859 0.2631087303161621 
H -1.8819078207015991 2.1598963737487793 -0.3323945105075836 
