14

C -0.48848453164100647 1.0857692956924438 -1.3431508541107178 
C 0.1886473149061203 0.36009275913238525 -0.18965338170528412 
C 2.0304720401763916 0.28461331129074097 0.2913396954536438 
O 1.2750521898269653 -0.4420391321182251 -0.6515761017799377 
C -0.7746878862380981 -0.35669130086898804 0.7906355261802673 
O -1.7329275608062744 0.2757378816604614 1.24459707736969 
N -0.5809508562088013 -1.7039361000061035 0.8897800445556641 
H -0.9416919350624084 0.33483371138572693 -2.0109221935272217 
H -1.2532296180725098 1.758749008178711 -0.9815993309020996 
H 0.24474115669727325 1.6424806118011475 -1.9322255849838257 
H 0.7275171279907227 1.2152342796325684 0.4284403920173645 
H 1.8928391933441162 -0.24669207632541656 1.2698396444320679 
H -0.8205336928367615 -2.125164747238159 1.7895337343215942 
H 0.23323698341846466 -2.0829877853393555 0.4049619436264038 
