16

C -0.6654976606369019 1.4206925630569458 -0.9008268713951111 
C -0.5090240836143494 0.1950090080499649 0.010784780606627464 
C -1.397766351699829 -0.974994957447052 -0.438210666179657 
C 0.9505037069320679 -0.2574287950992584 0.04377057030797005 
C 2.161400556564331 -0.4640156328678131 1.5067615509033203 
O 1.1568875312805176 -1.3165634870529175 0.9800625443458557 
H -0.05157504230737686 2.2642974853515625 -0.5536412000656128 
H -1.7128955125808716 1.7501628398895264 -0.9225308895111084 
H -0.3690352439880371 1.1823025941848755 -1.9333922863006592 
H -0.7739679217338562 0.46923500299453735 1.0426911115646362 
H -2.455773115158081 -0.6792865991592407 -0.4087011516094208 
H -1.2588437795639038 -1.8433068990707397 0.21691787242889404 
H -1.1581040620803833 -1.2732599973678589 -1.469949722290039 
H 1.4024683237075806 -0.4827997386455536 -0.9326000213623047 
H 3.0609817504882812 -0.6428905725479126 0.8302152752876282 
H 1.5272059440612793 0.6473541259765625 0.516845166683197 
