8

O -1.337426781654358 0.4936915636062622 -0.48547598719596863 
C -0.5066316723823547 0.29784560203552246 0.70054692029953 
C 0.8752738833427429 0.32835090160369873 0.25291383266448975 
N 0.9214854836463928 0.3733176589012146 -1.1108739376068115 
C -0.26253509521484375 -0.3086473345756531 -0.9097683429718018 
H -1.0163297653198242 0.270729124546051 1.657357096672058 
H 1.7304869890213013 -0.04900145158171654 0.8048846125602722 
H -0.40432292222976685 -1.4062861204147339 -0.9095840454101562 
