10

O -2.4530112743377686 -0.576606810092926 0.17283420264720917 
C -1.2648444175720215 -0.3790769875049591 0.11262310296297073 
N -0.7702013254165649 0.910286545753479 -0.29420092701911926 
N 0.5524410009384155 1.1693270206451416 -0.14801760017871857 
C 1.4004449844360352 0.04020460695028305 -0.33876243233680725 
C 1.0125563144683838 -1.0073965787887573 0.53571617603302 
N -0.2846379280090332 -1.211419701576233 0.7279176115989685 
H -1.4079928398132324 1.313153862953186 -0.989907443523407 
H 1.482910394668579 1.3560717105865479 -0.8568298816680908 
H 1.732335090637207 -1.6145435571670532 1.0786272287368774 
