15

N -1.0717929601669312 -0.4626322388648987 1.1389451026916504 
C -0.9516792893409729 0.6174007654190063 0.3598860204219818 
C 0.60562664270401 0.289348304271698 -1.0985462665557861 
C 1.6101911067962646 -0.4756196439266205 -0.478868305683136 
O 1.314393401145935 -0.9422604441642761 1.4749995470046997 
C -2.0154356956481934 1.0007123947143555 -0.5437451601028442 
N -2.881253480911255 1.269498348236084 -1.287801742553711 
H -1.7192829847335815 -1.16053307056427 0.7650539875030518 
H 0.11615961045026779 -0.8098932504653931 1.4547959566116333 
H -0.3880372941493988 1.454675316810608 0.7724408507347107 
H 0.8016056418418884 1.3378511667251587 -1.3245265483856201 
H -0.05360850319266319 -0.21783287823200226 -1.8030165433883667 
H 2.5656070709228516 -0.016590511426329613 -0.23089715838432312 
H 1.6594194173812866 -1.5445235967636108 -0.6691336631774902 
H 1.6193002462387085 -0.10354659706354141 1.8736789226531982 
