10

N -1.189033031463623 -0.2817355692386627 -0.8589556217193604 
C -0.1866409331560135 -1.0663864612579346 -0.34875667095184326 
O 0.012672441080212593 -2.2400918006896973 -0.6248154044151306 
N 0.8282989263534546 -0.3571287989616394 0.4525204300880432 
C 0.8474702835083008 0.8912478685379028 0.9003815650939941 
O 0.05785706266760826 1.8504294157028198 0.5181212425231934 
H -1.3935362100601196 0.6335415244102478 -0.46680957078933716 
H -1.3340779542922974 -0.41883474588394165 -1.8821066617965698 
H 1.3577048778533936 -1.0624604225158691 0.9815871715545654 
H 0.9992847442626953 2.051419258117676 1.3288335800170898 
