16

C -2.147048234939575 -0.9639866948127747 -0.16913683712482452 
O -0.9809542298316956 -0.48015788197517395 -0.8211050033569336 
C -0.3439987301826477 0.5907628536224365 -0.1438007950782776 
C 0.598992645740509 1.3530412912368774 -1.0803520679473877 
C 1.9909747838974 0.10218992829322815 0.16086286306381226 
C 0.6549877524375916 0.07981190085411072 0.923953652381897 
H -2.887392282485962 -0.15145762264728546 -0.012987101450562477 
H -1.918527603149414 -1.3914762735366821 0.8259420394897461 
H -2.5874063968658447 -1.7209161520004272 -0.8188629150390625 
H -1.0832819938659668 1.3096508979797363 0.27063485980033875 
H 0.6952175498008728 0.7241530418395996 -1.989035725593567 
H 1.884404182434082 1.1398341655731201 -0.4455578923225403 
H 2.899674654006958 0.2994643747806549 0.7431186437606812 
H 2.1286561489105225 -0.7587457299232483 -0.5079625844955444 
H 0.7039186358451843 0.7845197916030884 1.7663140296936035 
H 0.39178305864334106 -0.916688084602356 1.2979750633239746 
