14

C -1.2679766416549683 1.2060213088989258 -0.1480066478252411 
C -0.5719533562660217 -0.12103770673274994 -0.10967358201742172 
C 0.7124167084693909 -0.37457597255706787 0.7291325926780701 
O 0.6217407584190369 -1.5188183784484863 1.562050461769104 
C 1.8514375686645508 -0.24755685031414032 -0.2541423439979553 
C 1.1042063236236572 -0.21404661238193512 -1.3992412090301514 
H -1.9441267251968384 1.304781436920166 0.7214071154594421 
H -1.9046133756637573 1.279369592666626 -1.0425320863723755 
H -0.565377950668335 2.0480151176452637 -0.14415264129638672 
H 0.19551719725131989 -0.9090520739555359 -1.4502464532852173 
H -1.2788372039794922 -0.9650507569313049 -0.16750864684581757 
H 0.7818265557289124 0.5004585981369019 1.4060182571411133 
H 1.052857756614685 -2.244746685028076 1.073320746421814 
H 1.2493295669555664 0.2686542272567749 -2.373981475830078 
