14

C -0.8192849159240723 0.992015540599823 0.494764506816864 
C -0.21051804721355438 -0.3754062354564667 0.29921355843544006 
N -0.5616773962974548 -1.42939031124115 1.0035912990570068 
O -0.7142103314399719 -1.1188623905181885 2.3832294940948486 
C 1.0093690156936646 -0.5947403907775879 -0.5324991345405579 
C 1.03523588180542 -0.19222457706928253 -1.9316567182540894 
O 1.6186062097549438 0.6815474033355713 -1.1292710304260254 
H -1.7243083715438843 0.8901081085205078 1.1153737306594849 
H -0.997814416885376 1.4702222347259521 -0.46027112007141113 
H -0.12165529280900955 1.6433465480804443 1.0894505977630615 
H 0.09672077745199203 -0.7750181555747986 2.804123878479004 
H 1.7413839101791382 -1.3402811288833618 -0.16694198548793793 
H 0.28078991174697876 -0.20861735939979553 -2.810025930404663 
H -0.6326369047164917 0.35730060935020447 -2.159081220626831 
