11

C -0.6898441314697266 0.930209755897522 0.31229257583618164 
C -1.085046410560608 -0.3490135371685028 0.7035971283912659 
C -0.3541707992553711 -1.3390108346939087 -0.016177471727132797 
N 0.7530105710029602 -0.7668694853782654 -0.5503715872764587 
C 1.563767910003662 0.12076328694820404 0.23675888776779175 
C 0.5324803590774536 0.9224849343299866 -0.46920040249824524 
H -1.2427401542663574 1.8551678657531738 0.4835473299026489 
H -1.9800524711608887 -0.5920752882957458 1.281713843345642 
H -0.7429729700088501 -2.260226011276245 -0.441312700510025 
H 2.609215021133423 0.08675142377614975 -0.09891536831855774 
H 0.6363531351089478 1.3918179273605347 -1.4419324398040771 
