7

C 0.3909245431423187 0.5958747267723083 0.21896669268608093 
C -0.4104878604412079 -0.3341105580329895 -0.4873443841934204 
O -0.5808696150779724 -1.4269254207611084 0.1878291368484497 
H -0.012963148765265942 0.9142243266105652 1.1835722923278809 
H 0.5261277556419373 -0.8722026944160461 0.7094610333442688 
H 0.9332664608955383 1.3707499504089355 -0.3314599394798279 
H -0.8459980487823486 -0.24761031568050385 -1.4810247421264648 
