17

O -2.4703850746154785 -0.6590687036514282 0.1291588991880417 
C -2.0822501182556152 0.561297595500946 -0.4291956424713135 
C -0.48561891913414 0.7114697694778442 -0.41784071922302246 
C -0.056585971266031265 -0.24968072772026062 -1.469259262084961 
C 2.082085132598877 -0.20900540053844452 -0.002854858059436083 
C 1.0491546392440796 -0.4267924427986145 1.0863856077194214 
O -0.11218263953924179 0.44220253825187683 0.9527207612991333 
H -1.9561047554016113 -0.7216036319732666 0.9363883137702942 
H -2.40447735786438 1.414672613143921 0.18727287650108337 
H -2.4762942790985107 0.6964318752288818 -1.443711757659912 
H -0.18406543135643005 1.7462414503097534 -0.6651930212974548 
H -0.13579732179641724 -1.2601244449615479 -1.0359785556793213 
H 1.6669243574142456 -0.1730923354625702 -1.0882002115249634 
H 2.552804708480835 0.7750481367111206 0.06783874332904816 
H 2.8591787815093994 -0.9884584546089172 -0.017040381208062172 
H 1.4501186609268188 -0.1911914348602295 2.09002685546875 
H 0.7034960985183716 -1.4683462381362915 1.1194820404052734 
