14

C 0.8130648136138916 1.4181451797485352 -0.7544733881950378 
C 0.1628836989402771 0.3150699734687805 0.06074782833456993 
C -1.2927281856536865 -0.084344781935215 -0.14359082281589508 
C -0.22689099609851837 -1.9861353635787964 0.5564851760864258 
C 0.8195322155952454 -0.9425352811813354 0.5001243948936462 
O 0.6356399655342102 0.21436794102191925 1.4271494150161743 
H 0.580761730670929 1.3131221532821655 -1.8165130615234375 
H 0.45141658186912537 2.4020097255706787 -0.4129684567451477 
H 1.9002411365509033 1.3841298818588257 -0.628119945526123 
H -1.7175650596618652 0.208962544798851 -1.1099756956100464 
H -1.9815586805343628 0.18305866420269012 0.6700084805488586 
H -1.2825713157653809 -1.302941083908081 -0.2347404956817627 
H -0.7375745177268982 -1.966163992881775 1.5463106632232666 
H 1.8753483295440674 -1.1567459106445312 0.3395560085773468 
