9

O -1.1180404424667358 -1.7573245763778687 0.09892722964286804 
C -0.6582056879997253 -0.561393141746521 0.058373577892780304 
N 0.35329246520996094 -0.44433316588401794 -0.841812252998352 
C 0.9161800146102905 0.7723637223243713 -0.5601617097854614 
N 0.4778899550437927 1.3337843418121338 0.5594624280929565 
N -0.602303683757782 0.5272653102874756 0.8799418210983276 
H -0.05438397824764252 -1.7370141744613647 -0.859417200088501 
H 1.7171484231948853 1.2321563959121704 -1.137818455696106 
H -1.0315768718719482 0.6344956159591675 1.8025046586990356 
