13

C -1.8012545108795166 -0.004089074209332466 0.01804872788488865 
C -0.5313397645950317 -0.6590011119842529 0.575161337852478 
C 0.7328690886497498 0.1971575915813446 0.5210295915603638 
C 1.1157723665237427 -0.4016017019748688 -0.7930274605751038 
N 1.8855558633804321 -0.11409618705511093 -1.7033581733703613 
O 0.17909300327301025 -1.534559726715088 -0.3171955943107605 
H -1.5950441360473633 0.43551504611968994 -0.9681475162506104 
H -2.579174757003784 -0.7716138362884521 -0.08348444104194641 
H -2.1579902172088623 0.7904289960861206 0.6906275749206543 
H -0.711389422416687 -1.102319598197937 1.5609428882598877 
H 1.4079382419586182 0.2508231997489929 1.3739088773727417 
H 1.8535782098770142 1.6325733661651611 -0.09755849838256836 
H 2.201385974884033 1.2807831764221191 -0.7769471406936646 
