17

O -0.3340963125228882 0.3986676037311554 2.0268728733062744 
C -1.0823471546173096 -0.5006088018417358 1.2250386476516724 
C -0.4574166536331177 -0.6320430636405945 -0.1953456848859787 
C 1.0520349740982056 -0.9024748206138611 -0.11170358955860138 
C 1.533608317375183 1.2671582698822021 -0.5928871035575867 
O 0.24045763909816742 1.628554344177246 -0.43712863326072693 
C -0.7008810639381409 0.6661642789840698 -0.9917240738868713 
H -0.22641189396381378 1.2365971803665161 1.5369912385940552 
H -2.13907790184021 -0.21554754674434662 1.1214044094085693 
H -1.0584481954574585 -1.487104058265686 1.716553807258606 
H -0.9521353244781494 -1.4579941034317017 -0.7208780646324158 
H 1.3556938171386719 -1.3875128030776978 0.8251439332962036 
H 1.4971641302108765 -1.3852375745773315 -0.9790781736373901 
H 1.7375597953796387 0.9094581007957458 -1.616326093673706 
H 1.72584068775177 0.2375364452600479 0.14031590521335602 
H -0.48062941431999207 0.5381375551223755 -2.0703115463256836 
H -1.710914969444275 1.0862482786178589 -0.8769378662109375 
