11

N 2.0570521354675293 0.19608661532402039 0.3490496277809143 
C 0.7145230174064636 -0.05298357829451561 0.30215203762054443 
N -0.18111002445220947 1.0218647718429565 0.40285351872444153 
N -1.0948444604873657 0.7282727360725403 -0.835512638092041 
C -1.1089251041412354 -0.472430944442749 -0.14396338164806366 
O -2.268127918243408 -0.8629064559936523 0.430657297372818 
N 0.0604272335767746 -1.2172191143035889 0.10808683186769485 
H 2.5904016494750977 -0.36681243777275085 1.0242241621017456 
H 2.527509927749634 0.41537249088287354 -0.5298219919204712 
H -0.4884334206581116 0.6479288935661316 -1.6502989530563354 
H -2.8084728717803955 -0.03717285767197609 0.5425733923912048 
