17

C 0.5260481238365173 -0.77398282289505 -2.0013699531555176 
O -0.837490439414978 -0.5146663188934326 -1.7402198314666748 
C -1.2330057621002197 -0.1477162390947342 -0.44242385029792786 
C -1.1580538749694824 1.349255084991455 -0.12777045369148254 
C -0.38156643509864807 0.34891602396965027 0.6687367558479309 
C 0.9859430193901062 0.33368727564811707 1.064065933227539 
O 0.6382622122764587 -0.36949265003204346 2.7484192848205566 
H 0.898796796798706 -1.635942816734314 -1.4199825525283813 
H 0.5840639472007751 -1.041223406791687 -3.066437005996704 
H 1.1694271564483643 0.10538464784622192 -1.8302286863327026 
H -2.1420021057128906 -0.6914183497428894 -0.1508849412202835 
H -0.6160523891448975 1.9316502809524536 -0.8848781585693359 
H -2.0607550144195557 1.8243321180343628 0.2580103278160095 
H -0.3544353246688843 -0.21022024750709534 2.1040008068084717 
H 1.4567203521728516 1.2531088590621948 1.3988924026489258 
H 1.6676830053329468 -0.43568816781044006 0.6901102662086487 
H 0.8564168214797974 -1.3259828090667725 2.7319600582122803 
