17

O 1.5413076877593994 -1.5437476634979248 1.607580542564392 
C 2.0834696292877197 -1.0176506042480469 0.6286138892173767 
C 1.5421627759933472 0.10595406591892242 -0.11856645345687866 
C 0.3975358009338379 0.8899262547492981 0.44334349036216736 
C -0.8198573589324951 0.7511940002441406 -0.5611682534217834 
C -0.7494494318962097 -0.6880853772163391 -1.0676261186599731 
C -2.186462163925171 0.6094199419021606 -0.13610723614692688 
H 3.036728858947754 -1.4302942752838135 0.21563351154327393 
H 2.1887145042419434 0.5744786858558655 -0.8652810454368591 
H 0.5502328276634216 -0.6869898438453674 -1.0178874731063843 
H 0.6222227811813354 1.955210566520691 0.5734561681747437 
H 0.1083955243229866 0.4591335356235504 1.4110742807388306 
H -0.7074594497680664 1.443946361541748 -1.40521240234375 
H -1.1795042753219604 -0.9063230752944946 -2.0491085052490234 
H -0.962120532989502 -1.4632296562194824 -0.32232654094696045 
H -3.020061731338501 1.0524803400039673 -0.6809607148170471 
H -2.419201374053955 0.02872777357697487 0.7557790279388428 
