19

C 1.3547309637069702 1.3282350301742554 -0.3603522479534149 
C 1.0897339582443237 -0.09090515226125717 0.1871880292892456 
C 1.4598063230514526 -0.2856014668941498 1.651007890701294 
C -0.3777669072151184 -0.438258558511734 0.45966339111328125 
C -1.567920207977295 0.3839007019996643 -0.08859040588140488 
C -1.6724332571029663 -0.32819026708602905 -1.3786725997924805 
O -2.4479994773864746 -1.4336762428283691 -1.4673550128936768 
H 0.9139252305030823 1.4700292348861694 -1.3545149564743042 
H 0.9573736786842346 2.0910041332244873 0.3033211827278137 
H 2.435213565826416 1.4865179061889648 -0.4647311568260193 
H 1.581150770187378 -0.8095282316207886 -0.47049641609191895 
H 1.7495840787887573 0.5623373985290527 2.2601120471954346 
H -0.1051124706864357 -0.41726216673851013 1.7294143438339233 
H 1.8084169626235962 -1.263288140296936 1.9856960773468018 
H -0.6138890981674194 -1.521185040473938 0.3650048077106476 
H -1.332105278968811 1.4513802528381348 -0.19431021809577942 
H -2.4559922218322754 0.2513090968132019 0.5359441041946411 
H -0.877022385597229 -0.18560951948165894 -2.1141810417175293 
H -1.8996943235397339 -2.2512094974517822 -1.584147572517395 
