19

C 2.2113001346588135 0.22280333936214447 -0.16566072404384613 
C 0.9275058507919312 -0.5518444776535034 0.14889313280582428 
O 1.134102702140808 -1.148945689201355 1.4275673627853394 
C -0.26104825735092163 0.42944851517677307 0.10538462549448013 
C -0.5694800615310669 0.9748044013977051 -1.2521110773086548 
C -1.9501956701278687 0.5586686134338379 -0.8466467261314392 
C -1.6503263711929321 -0.6774719953536987 0.6259114146232605 
H 2.1551501750946045 0.6927292346954346 -1.1543419361114502 
H 3.0678179264068604 -0.4626534581184387 -0.14338761568069458 
H 2.3722262382507324 1.0043264627456665 0.5892064571380615 
H 0.765478253364563 -1.321460485458374 -0.6273539662361145 
H 0.45845848321914673 -1.84010648727417 1.5454353094100952 
H -0.2064603716135025 1.1874022483825684 0.8887729644775391 
H -0.13439352810382843 0.40606454014778137 -2.08583402633667 
H -0.3667695224285126 2.046271324157715 -1.348809003829956 
H -2.3779714107513428 1.3983429670333862 -0.25738954544067383 
H -1.5729827880859375 -1.6359554529190063 0.10564000904560089 
H -2.6987874507904053 -0.48388907313346863 0.869955837726593 
H -1.1706211566925049 -0.7574526071548462 1.625166654586792 
