6

O 1.2150410413742065 -1.067159652709961 0.8213135004043579 
C 2.0349864959716797 -0.47696101665496826 0.23264563083648682 
N -0.479857474565506 0.32379162311553955 0.11919066309928894 
N -1.671586036682129 0.34036654233932495 0.2923721969127655 
N -2.8365399837493896 0.34879395365715027 0.4665021598339081 
H 1.9055049419403076 0.4289395213127136 -0.4096611440181732 
