13

N 0.06751096993684769 1.181146264076233 -2.5963127613067627 
C -0.09055031090974808 0.44369685649871826 -1.6904830932617188 
C -0.334269642829895 -0.4238583743572235 -0.5301184058189392 
C -1.0934010744094849 0.29717305302619934 0.6157229542732239 
C 1.0678128004074097 0.43183833360671997 1.1565912961959839 
C 0.9874834418296814 -0.7669682502746582 0.20389962196350098 
H -0.8616523742675781 -1.311030387878418 -0.9182751774787903 
H -1.555372953414917 1.2616209983825684 0.3596615195274353 
H -1.821205973625183 -0.3675628900527954 1.1033891439437866 
H 1.2049381732940674 1.315657138824463 0.5195317268371582 
H -0.3077305853366852 0.4980466365814209 1.5079257488250732 
H 1.8580927848815918 -0.8336365818977356 -0.46697214245796204 
H 0.8783446550369263 -1.7261227369308472 0.7354400753974915 
