15

C 0.9967363476753235 -1.6329842805862427 0.060226742178201675 
N 0.6372153162956238 -0.4148918688297272 0.7764018774032593 
C 0.8161731958389282 0.8646420836448669 0.009609733708202839 
C -0.6145750284194946 1.239615797996521 0.3731478154659271 
O -1.763533353805542 0.935961902141571 -1.1528972387313843 
C -0.8043103814125061 -0.06867846101522446 0.8771406412124634 
H 0.5561062693595886 -2.4939475059509277 0.593315839767456 
H 2.0914905071258545 -1.7471165657043457 0.0697617158293724 
H 0.6386502385139465 -1.6662306785583496 -0.9785966873168945 
H 1.0365774631500244 0.7812461853027344 -1.0659961700439453 
H 1.5540757179260254 1.5458635091781616 0.4726705849170685 
H -1.0240522623062134 2.226851224899292 0.5845238566398621 
H -1.1750528812408447 0.8450157642364502 -1.9519739151000977 
H -1.5488035678863525 -0.051436733454465866 -0.4128864109516144 
H -1.396697998046875 -0.36391013860702515 1.7455514669418335 
