19

C 2.0713624954223633 -0.512907862663269 1.8865739107131958 
O 0.36110714077949524 -1.4090708494186401 -0.06512739509344101 
C 0.541219174861908 -0.20302468538284302 -0.5847187042236328 
C 0.3562779128551483 0.8623119592666626 0.4823177456855774 
C -0.6880769729614258 0.17301726341247559 -1.6016665697097778 
C -2.073725461959839 0.25588566064834595 -0.9303592443466187 
O -2.33870530128479 -0.8066064715385437 -0.04057157784700394 
H 2.84938383102417 -0.8485013246536255 1.1980379819869995 
H 2.3583824634552 0.21810005605220795 2.6450822353363037 
H 1.3640413284301758 -1.2972160577774048 2.2054858207702637 
H 1.4379595518112183 -0.008803321048617363 -1.2063747644424438 
H -0.4946906864643097 0.6285577416419983 1.1496433019638062 
H 1.3610161542892456 0.4794846475124359 1.1139655113220215 
H 0.49590152502059937 1.9107189178466797 0.23975950479507446 
H -0.43837326765060425 1.069650650024414 -2.1773533821105957 
H -0.6432138085365295 -0.6925066113471985 -2.2781825065612793 
H -2.1907224655151367 1.2385683059692383 -0.43944984674453735 
H -2.8301875591278076 0.23854082822799683 -1.746371865272522 
H -1.4989567995071411 -1.2961989641189575 0.1493094265460968 
