12

C -1.770546555519104 -1.1507906913757324 0.6826546788215637 
O -0.3296213150024414 -1.1812909841537476 0.7869721055030823 
C 0.3189328610897064 -0.1562824845314026 0.19977615773677826 
N -0.28016361594200134 1.079385757446289 0.16461914777755737 
O 0.5625882744789124 1.8602617979049683 -0.5601030588150024 
C 1.6449334621429443 1.0630613565444946 -0.9723851084709167 
C 1.563207745552063 -0.2989400625228882 -0.5191999077796936 
H -2.1224403381347656 -0.996977686882019 -0.3440641462802887 
H -2.169002056121826 -0.36196401715278625 1.3348073959350586 
H -2.120049238204956 -2.1265242099761963 1.0350534915924072 
H 2.2743709087371826 1.5146797895431519 -1.738899827003479 
H 2.4277901649475098 0.7553813457489014 -0.06923117488622665 
