19

C -2.7150180339813232 -0.1919037103652954 -0.1735161393880844 
C -1.3453692197799683 -0.6569373607635498 -0.5170283317565918 
C -0.275551974773407 0.2749650180339813 -0.8265209794044495 
C 0.8789234757423401 0.25759369134902954 0.3074576258659363 
C 1.841411828994751 -0.920074462890625 0.10090448707342148 
C 2.3234519958496094 0.5010954737663269 -0.07423432916402817 
C 0.3549882471561432 0.6813780069351196 1.5653389692306519 
H -3.297464609146118 0.12932173907756805 -1.0613490343093872 
H -2.6687700748443604 0.703752338886261 0.4778788685798645 
H -3.3050527572631836 -0.9670739769935608 0.3344418406486511 
H -1.1149687767028809 -1.721860408782959 -0.4832436144351959 
H 0.270635187625885 0.02043866738677025 -1.7499849796295166 
H -0.6438101530075073 1.3053468465805054 -0.9237799644470215 
H 1.711327314376831 -1.538036584854126 -0.7910033464431763 
H 2.1434192657470703 -1.463728666305542 0.9949169754981995 
H 2.5299155712127686 0.8385070562362671 -1.0903786420822144 
H 2.988307476043701 0.9244261384010315 0.6794618964195251 
H -0.7003812789916992 0.5374380350112915 1.7878568172454834 
H 0.971639096736908 1.1937212944030762 2.3029086589813232 
