13

O -2.033348798751831 -0.9011179208755493 -0.8894277215003967 
C -1.2677026987075806 -0.06533678621053696 -0.32154399156570435 
C -1.018159031867981 -0.1953451931476593 1.3327455520629883 
O 0.26497822999954224 0.0924692451953888 1.551068663597107 
C 1.0233957767486572 0.4496534466743469 0.356717973947525 
C 1.2479925155639648 -0.7035015225410461 -0.5730234980583191 
C 0.15129460394382477 0.30633291602134705 -0.8527776002883911 
H -1.7282828092575073 0.9660013914108276 -0.09402719140052795 
H -1.6623252630233765 0.22409731149673462 2.1136045455932617 
H 1.747097134590149 1.2399414777755737 0.5370073914527893 
H 2.124340295791626 -0.6711056232452393 -1.2218825817108154 
H 0.9568813443183899 -1.6955807209014893 -0.21149107813835144 
H 0.19383929669857025 0.9534921050071716 -1.7269706726074219 
