18

C 1.1196527481079102 -0.5977874994277954 1.486938238143921 
C -0.038842570036649704 -0.2834073603153229 0.5558144450187683 
C -1.3405336141586304 -0.166934072971344 1.1864292621612549 
C 0.2417735606431961 0.7105691432952881 -0.5986472964286804 
C -0.8469249606132507 0.7489653825759888 -1.6848983764648438 
C 1.5627886056900024 0.44232743978500366 -1.1786816120147705 
N 2.5824077129364014 0.14725014567375183 -1.6957955360412598 
H 0.8822153806686401 -1.4706933498382568 2.1124796867370605 
H 1.2489343881607056 0.2843226194381714 2.1387486457824707 
H 2.0354764461517334 -0.8115931153297424 0.9249331951141357 
H 0.09788259118795395 -1.5883488655090332 -0.3943517208099365 
H -0.8449214100837708 -1.1831820011138916 0.2616572082042694 
H -1.4958531856536865 -0.6816924214363098 2.1379055976867676 
H -2.1292917728424072 0.4325632154941559 0.745910108089447 
H 0.2901807725429535 1.7023781538009644 -0.11537221074104309 
H -0.5698773860931396 1.443994164466858 -2.4824862480163574 
H -1.798078179359436 1.1124565601348877 -1.269096851348877 
H -0.9969888925552368 -0.24118787050247192 -2.131486415863037 
