14

C -0.2514037489891052 -1.6258525848388672 0.2983790636062622 
C 0.6901572346687317 -0.5765880346298218 -0.16937755048274994 
C 1.3626455068588257 -0.4443209767341614 -1.3376938104629517 
O 1.4954792261123657 -0.35785454511642456 -2.566206693649292 
C -0.4367167055606842 1.7826710939407349 -0.9301763772964478 
C -0.6639686226844788 1.6790087223052979 0.30608925223350525 
N -0.7005800008773804 1.7131398916244507 1.6169241666793823 
H 0.22248730063438416 -2.373579263687134 0.9517912268638611 
H -0.6995362639427185 -2.1659700870513916 -0.5565800666809082 
H -1.081378698348999 -1.1496672630310059 0.8420466780662537 
H 2.0913801193237305 -1.1852805614471436 -0.6871058940887451 
H -0.5809664726257324 1.6249746084213257 -1.9854588508605957 
H -1.5835031270980835 1.5299433469772339 2.0621416568756104 
H 0.1359041929244995 1.5493760108947754 2.155226945877075 
