16

C 0.47873711585998535 -1.756652593612671 -0.36521294713020325 
C -0.36070385575294495 -0.7474998235702515 0.5920151472091675 
O 0.17421099543571472 -0.6369419693946838 1.7954009771347046 
C -0.28198638558387756 0.488008588552475 -0.2576333284378052 
C 0.8802708387374878 1.425325632095337 -0.137399822473526 
C -1.0824646949768066 0.6006091237068176 -1.412774682044983 
N -1.8066346645355225 0.8565396666526794 -2.2915773391723633 
H 1.4823247194290161 -1.3588752746582031 -0.5424814224243164 
H 0.5577906370162964 -2.6588263511657715 0.24954847991466522 
H -0.04817396402359009 -1.9669109582901 -1.2998988628387451 
H -1.3950960636138916 -1.1780601739883423 0.5192453861236572 
H -0.8609211444854736 0.7544853687286377 1.995444655418396 
H -1.260193943977356 1.2173418998718262 1.486451506614685 
H 0.5847218632698059 2.455770492553711 -0.3750230669975281 
H 1.6745126247406006 1.1421343088150024 -0.8487484455108643 
H 1.2636059522628784 1.3635525703430176 0.8926438689231873 
