15

C -1.81038236618042 0.48913273215293884 0.2809080481529236 
C -0.8489139080047607 -0.45960190892219543 -0.4183478355407715 
C 0.04731817543506622 -1.2594472169876099 0.304384708404541 
N 1.9368219375610352 -0.3718961775302887 0.23567314445972443 
C 1.803993582725525 0.8517583608627319 -0.21659210324287415 
O 1.0263667106628418 1.1137117147445679 -1.2246031761169434 
H -2.1218230724334717 1.3083131313323975 -0.3827592134475708 
H -2.7251832485198975 -0.030008258298039436 0.6117892861366272 
H -1.3456759452819824 0.9397028684616089 1.1696968078613281 
H 0.10977240651845932 0.37406429648399353 -1.0455608367919922 
H -1.2252068519592285 -0.9094365835189819 -1.3467246294021606 
H 0.41997724771499634 -2.1825759410858154 -0.1325688511133194 
H 0.06718216836452484 -1.2191437482833862 1.3943538665771484 
H 2.4315881729125977 -0.39322957396507263 1.1328022480010986 
H 2.2961549758911133 1.7218643426895142 0.2588745951652527 
