10

C -1.105137586593628 0.994482696056366 -0.014089075848460197 
C -0.43852752447128296 -0.273549884557724 0.45583754777908325 
C 0.7937878370285034 -0.6349048018455505 0.052561692893505096 
C 2.0981829166412354 -0.46795403957366943 -0.3432043492794037 
H -1.9447940587997437 0.7892017364501953 -0.6981732845306396 
H -0.39295920729637146 1.6441757678985596 -0.5397429466247559 
H -1.5143556594848633 1.5554897785186768 0.8407202959060669 
H -1.0089426040649414 -0.9525949358940125 1.0889123678207397 
H 1.241204857826233 -1.6552470922470093 0.387050598859787 
H 2.3215701580047607 -1.0449901819229126 -1.2681658267974854 
