16

C -1.4310706853866577 0.321999728679657 0.5693170428276062 
C -1.2595617771148682 0.6019371151924133 -0.7644774913787842 
O -1.7650107145309448 -0.2488744854927063 -1.7072279453277588 
C 1.2658294439315796 0.4498324394226074 -0.8826487064361572 
N 1.451864242553711 -0.6299102902412415 -0.14005793631076813 
C 1.101178526878357 -0.47469350695610046 1.3837199211120605 
O 1.3477051258087158 0.6693690419197083 1.8639450073242188 
H -1.2217005491256714 1.0632354021072388 1.343231439590454 
H -2.146536111831665 -0.45658108592033386 0.8611190915107727 
H -0.1366182267665863 -0.5654728412628174 1.1531808376312256 
H -0.9798413515090942 1.5755035877227783 -1.1388664245605469 
H -1.45136296749115 -1.1515662670135498 -1.5450375080108643 
H 1.2402247190475464 0.4054807722568512 -1.9526751041412354 
H 1.3901551961898804 1.402937650680542 -0.34329962730407715 
H 1.155491828918457 -1.5300774574279785 -0.5491594076156616 
H 1.4392529726028442 -1.4331198930740356 1.8489365577697754 
