15

C -1.6255509853363037 -0.1024734154343605 0.5506237745285034 
C -0.5963824391365051 -1.1303201913833618 0.11513149738311768 
O 0.6819745302200317 -1.0816417932510376 0.7933065295219421 
C 0.0956980437040329 -0.8763937950134277 -1.1567343473434448 
O 0.7658607959747314 1.4348740577697754 -0.9738569855690002 
C 1.587294340133667 1.6747980117797852 -0.061003826558589935 
O 1.5424407720565796 1.1916686296463013 1.1338642835617065 
H -1.2418992519378662 0.914056122303009 0.43134304881095886 
H -2.5413637161254883 -0.21105529367923737 -0.03599109128117561 
H -1.8660744428634644 -0.25500842928886414 1.6093857288360596 
H -0.9864574670791626 -2.1584720611572266 0.17744462192058563 
H 1.1424810886383057 -0.10097938776016235 0.9846228361129761 
H -0.2109636664390564 -0.11430750042200089 -1.873678207397461 
H 0.8466899991035461 -1.582472562789917 -1.4706257581710815 
H 2.406251907348633 2.3977277278900146 -0.22383177280426025 
