13

O -1.54737389087677 -1.098347783088684 -0.9020014405250549 
C -0.5604220032691956 -0.30753690004348755 -0.8771799802780151 
C -0.3328675627708435 0.8120355010032654 -1.7054754495620728 
O 0.26110783219337463 1.7025543451309204 0.675460934638977 
C 1.021156907081604 0.7415893077850342 0.7244244813919067 
C -0.49203214049339294 -0.9534393548965454 1.375012755393982 
C 0.43201956152915955 -0.5731386542320251 0.27144891023635864 
H -1.1734309196472168 1.334733009338379 -2.166794538497925 
H 0.6582632064819336 0.9773855209350586 -2.1299173831939697 
H 2.0923421382904053 0.839666485786438 0.9594473838806152 
H -0.5790848135948181 -1.96868097782135 1.7498407363891602 
H -0.9693998694419861 -0.1514386534690857 1.9327479600906372 
H 1.189721941947937 -1.3553818464279175 0.092985138297081 
