11

N 2.1250205039978027 -0.03915959596633911 0.6657076478004456 
C 0.8067029118537903 0.011355765163898468 0.233626589179039 
C -0.01820007525384426 -0.9612047672271729 -0.4683722257614136 
C -1.2572513818740845 -0.3608532249927521 -0.6857569217681885 
C -1.2785331010818481 0.8269460797309875 0.06938422471284866 
O -0.17947639524936676 0.9155595302581787 0.8615070581436157 
H 2.0855836868286133 -0.0683085173368454 1.717040777206421 
H 1.4700652360916138 0.66825932264328 -0.47762227058410645 
H 0.20509913563728333 -2.026022434234619 -0.48428115248680115 
H -2.073875904083252 -0.6778085231781006 -1.3305387496948242 
H -1.8851349353790283 1.7112364768981934 -0.10069487988948822 
