14

C 0.5462483167648315 0.180111363530159 2.1531074047088623 
C 0.364413321018219 -0.14633361995220184 0.6941680908203125 
C 0.35408997535705566 0.3280128836631775 -1.8962008953094482 
C -0.7145830988883972 -0.5375049710273743 -1.5939536094665527 
C -0.8622084259986877 0.08550101518630981 0.06024743244051933 
O -1.8913671970367432 0.659452497959137 0.3438648581504822 
H 1.329274296760559 0.9367396831512451 2.293332099914551 
H -0.39051705598831177 0.5522960424423218 2.583787202835083 
H 0.8508638739585876 -0.7082685828208923 2.737771511077881 
H 1.0997889041900635 -0.807970404624939 0.2337460070848465 
H 0.17087997496128082 1.358790397644043 -2.1713409423828125 
H 1.390171766281128 -0.016542254015803337 -1.8669804334640503 
H -1.6948859691619873 -0.2736918330192566 -2.0204555988311768 
H -0.5521684288978577 -1.610592007637024 -1.5510936975479126 
