15

O -0.0818452388048172 0.4173315763473511 1.96207857131958 
C 0.59442138671875 -0.45464086532592773 1.0731987953186035 
C 1.2119849920272827 0.36659663915634155 -0.10559748858213425 
C -0.1242901012301445 0.667229175567627 -0.8059861063957214 
O -0.7555607557296753 1.8420133590698242 -0.44344720244407654 
C -1.1389431953430176 -0.5794245004653931 -0.7230319380760193 
C -0.31584322452545166 -1.3354499340057373 0.2212366759777069 
H -0.6959741711616516 0.9643329381942749 1.4744945764541626 
H 1.334136962890625 -1.0056761503219604 1.6724966764450073 
H 1.8866666555404663 -0.24761709570884705 -0.7203167080879211 
H 1.7458064556121826 1.2633401155471802 0.24520692229270935 
H -0.4462118446826935 1.507669448852539 -1.6310367584228516 
H -2.099900960922241 -0.23351866006851196 -0.30337634682655334 
H -1.333991527557373 -0.9700295925140381 -1.7358829975128174 
H 0.21954433619976044 -2.2021563053131104 -0.18003670871257782 
