14

N -0.7806968688964844 -2.2731406688690186 0.7271518707275391 
C -0.13546118140220642 -1.1025363206863403 0.28194403648376465 
C -0.1737331598997116 0.1948881596326828 0.8408260941505432 
C 0.1816806197166443 1.0988126993179321 -0.18226274847984314 
N 0.2998631000518799 2.487051486968994 -0.1070839986205101 
C 0.4734223186969757 0.3178897798061371 -1.3335565328598022 
N 0.3234294652938843 -1.0206950902938843 -1.1218093633651733 
H -0.5287651419639587 -3.074798822402954 0.16374585032463074 
H -1.8057180643081665 -2.1419553756713867 0.7216054201126099 
H -0.37213388085365295 0.44275471568107605 1.8822507858276367 
H -0.5663668513298035 2.971322774887085 0.09464755654335022 
H 1.097542643547058 2.8189098834991455 0.43843549489974976 
H 0.919958233833313 0.7003310918807983 -2.2492263317108154 
H 1.0669785737991333 -1.4188346862792969 -0.15666788816452026 
