15

C 0.004045319743454456 -1.4045054912567139 -1.6885212659835815 
N -0.22369356453418732 -0.6294175386428833 -0.4837162494659424 
C 0.6288996338844299 -0.654029130935669 0.6140421628952026 
C 0.20970478653907776 0.24024498462677002 1.61650812625885 
C -1.110858678817749 1.0878013372421265 0.837133526802063 
N 0.2902616560459137 1.7093106508255005 1.2346774339675903 
C -1.1022694110870361 0.43231698870658875 -0.41288256645202637 
H 0.8458335399627686 -2.0942223072052 -1.5598901510238647 
H 0.1876702904701233 -0.7286368608474731 -2.5405690670013428 
H -0.9161330461502075 -1.9849238395690918 -1.9026721715927124 
H 1.57742178440094 -1.185395359992981 0.5796011090278625 
H 0.36082157492637634 0.08622238039970398 2.679415225982666 
H 0.9032868146896362 1.9510835409164429 0.4723643958568573 
H 0.08496562391519547 2.52711820602417 1.8263932466506958 
H -1.739956259727478 0.6470323204994202 -1.2718837261199951 
