10

O 0.15522177517414093 -2.256758213043213 -1.1685786247253418 
C 0.14323662221431732 -1.1724891662597656 -0.6377095580101013 
N 1.065405011177063 -0.7754296064376831 0.4046793580055237 
N 1.1982096433639526 0.46703359484672546 0.850767970085144 
C 0.5864646434783936 1.5335850715637207 0.8733358383178711 
C -1.1879318952560425 0.7722663283348083 -0.43501201272010803 
N -0.545438289642334 -0.02435952238738537 -1.1619606018066406 
H 1.206950068473816 -1.5567482709884644 1.047171711921692 
H -0.35030046105384827 2.0921249389648438 0.7741344571113586 
H -2.271817445755005 0.9207753539085388 -0.54682856798172 
