10

O -0.7371888160705566 -1.8248993158340454 1.2743555307388306 
C -0.156575009226799 -0.8660342693328857 0.6282929182052612 
C 1.0912082195281982 -0.30319321155548096 0.3133220672607422 
N 0.7821559309959412 0.7187173962593079 -0.5958929657936096 
C -0.5765684247016907 0.8731019496917725 -0.6921470761299133 
N -1.1289533376693726 -0.06788139790296555 0.07927042245864868 
H -1.8116637468338013 -0.97801673412323 0.653209924697876 
H 2.108454942703247 -0.5948740839958191 0.5491430163383484 
H 1.4422730207443237 1.456862449645996 -0.8346771001815796 
H -1.0131428241729736 1.5862174034118652 -1.3748767375946045 
