10

O -0.0753636509180069 -1.07870614528656 -0.6235241293907166 
C -1.1416966915130615 0.3001692593097687 -0.6268340349197388 
C -0.7875922918319702 1.1195509433746338 0.48022839426994324 
C 0.2580902576446533 0.9404721856117249 1.1836119890213013 
C 1.3501806259155273 0.09712786972522736 1.3181407451629639 
O 2.4312682151794434 -0.0968116968870163 1.7892104387283325 
H 0.32787513732910156 -1.0630385875701904 -1.5291342735290527 
H -2.08503794670105 -0.25604283809661865 -0.5364270210266113 
H -0.9815838932991028 0.7237213850021362 -1.6242668628692627 
H 0.703860342502594 -0.6864425539970398 0.16899512708187103 
