10

N -0.7964758276939392 -1.1624085903167725 0.5314825177192688 
C 0.2571767270565033 -1.0621616840362549 -0.3424377739429474 
O 0.9106326103210449 -1.9886715412139893 -0.7839434146881104 
N 0.6711769700050354 0.3051077127456665 -0.6656865477561951 
C 0.410107284784317 1.4578427076339722 -0.06298410147428513 
O -0.7538410425186157 1.6931612491607666 0.5413220524787903 
H -0.5896320343017578 -1.8218797445297241 1.3072264194488525 
H -1.3483915328979492 -0.34170767664909363 0.7604472041130066 
H 1.2349485158920288 0.30332961678504944 -1.5222843885421753 
H 0.004298138432204723 2.6173880100250244 0.23685809969902039 
