14

C -0.8835060596466064 -1.7474782466888428 -0.34464699029922485 
N 0.35280701518058777 -1.5588411092758179 0.47558194398880005 
C -0.3467758595943451 -0.4091269075870514 -0.09357865154743195 
C -0.9235357642173767 0.7945933938026428 0.6626352071762085 
C 1.1469016075134277 1.3315746784210205 0.2055785357952118 
C 0.22072100639343262 0.7568639516830444 -0.8659893274307251 
O -0.9827966690063477 1.5663429498672485 -0.510398805141449 
H -1.7988591194152832 -2.050729751586914 0.1646658182144165 
H -0.7279729843139648 -2.2277750968933105 -1.3190568685531616 
H 0.1511961817741394 -1.6280299425125122 1.4786207675933838 
H 0.026853037998080254 1.3287792205810547 1.2898437976837158 
H 1.3651533126831055 2.4048290252685547 0.1852898746728897 
H 1.9386441707611084 0.6822935342788696 0.6034414172172546 
H 0.4611704647541046 0.7567047476768494 -1.931986927986145 
