17

C 1.9503966569900513 -0.20767676830291748 -0.5200273990631104 
N 0.7935419678688049 0.3472960591316223 0.16586604714393616 
C 0.71788489818573 0.8191649913787842 1.468875527381897 
C -0.513850748538971 -0.0026779321487993 -0.012961385771632195 
C -1.5811333656311035 1.0334076881408691 -0.2683737874031067 
C -0.8942238688468933 -1.430867314338684 -0.3348948657512665 
H 2.1568665504455566 -1.2493221759796143 -0.21855488419532776 
H 1.7885769605636597 -0.17870402336120605 -1.6075822114944458 
H 2.82430362701416 0.40585821866989136 -0.2647179067134857 
H 1.0563323497772217 1.8298512697219849 1.712631106376648 
H 0.333612322807312 0.16980624198913574 2.2527012825012207 
H -2.436976909637451 0.9394900798797607 0.419042706489563 
H -1.9919078350067139 0.9035863280296326 -1.290826439857483 
H -1.1762535572052002 2.0475778579711914 -0.18018607795238495 
H -1.9151849746704102 -1.655464768409729 0.007869897410273552 
H -0.8883682489395142 -1.606282353401184 -1.4279252290725708 
H -0.20808452367782593 -2.159454345703125 0.11884353309869766 
