14

O 0.7454420924186707 -2.2186031341552734 0.9749898314476013 
C 0.9769691228866577 -0.8788223266601562 0.8592450022697449 
C -0.022362537682056427 1.4446455240249634 0.8552841544151306 
C -0.21416974067687988 1.2459303140640259 -0.6407164335250854 
C -0.629045844078064 -0.2078494131565094 -0.4030791223049164 
C -0.042883891612291336 0.07217652350664139 1.292900800704956 
H 1.1450774669647217 -2.695300340652466 0.21929514408111572 
H 1.784658432006836 -0.5434998869895935 0.20796093344688416 
H -0.6225085258483887 2.1761417388916016 1.3920645713806152 
H 0.6612767577171326 1.350386619567871 -1.3071280717849731 
H -1.0264843702316284 1.8485997915267944 -1.0831246376037598 
H -1.6939959526062012 -0.31827646493911743 -0.1740775853395462 
H -0.32570379972457886 -1.044996976852417 -1.0613449811935425 
H -0.6402943134307861 -0.28661292791366577 2.1488852500915527 
