13

C -1.4527170658111572 -1.4607322216033936 -0.3086088299751282 
C -0.06731466948986053 -0.9962122440338135 -0.25958436727523804 
N 1.112735390663147 -1.2326384782791138 -0.4452064633369446 
C 0.765762448310852 0.10497266054153442 1.106811285018921 
C 0.6321668028831482 1.16981041431427 0.2330593764781952 
O 1.5382702350616455 2.226532220840454 0.33243733644485474 
N -0.48108336329460144 1.2148022651672363 -0.4837348759174347 
H -2.0795373916625977 -0.7150079607963562 0.19054993987083435 
H -1.7603750228881836 -1.5634397268295288 -1.354939579963684 
H -1.5634804964065552 -2.434847354888916 0.19781486690044403 
H 1.6797504425048828 -0.3352421820163727 1.5124348402023315 
H 2.393542528152466 1.8335027694702148 -0.012143261730670929 
H -0.7177197933197021 2.188500165939331 -0.7088904976844788 
