19

C 0.4971841871738434 -2.0818679332733154 0.3039293885231018 
C 1.1669765710830688 -0.9427887797355652 -0.46685683727264404 
C -0.291898250579834 -0.016198385506868362 -1.5108305215835571 
C 0.2911949157714844 0.6890009045600891 -0.4172686040401459 
C -0.7699790596961975 2.360372304916382 0.7755082845687866 
C -0.399650514125824 0.9733642339706421 0.9485512971878052 
O -1.5036885738372803 0.06294896453619003 1.1378576755523682 
H 1.270232915878296 -2.8052656650543213 0.5951330661773682 
H -0.23313100636005402 -2.6077072620391846 -0.32441461086273193 
H 0.009275134652853012 -1.7155125141143799 1.2025797367095947 
H 1.6420080661773682 -1.2815346717834473 -1.4030203819274902 
H 1.980125904083252 -0.5056301355361938 0.1408417969942093 
H 0.01991911418735981 0.12487130612134933 -2.5493602752685547 
H -1.149461030960083 -0.6685702204704285 -1.322907567024231 
H 1.047991156578064 1.4248815774917603 -0.6789017915725708 
H -1.6194430589675903 2.622680187225342 0.14684264361858368 
H -0.044192686676979065 3.143974542617798 1.0121394395828247 
H 0.3190799951553345 0.7433230876922607 1.7536543607711792 
H -2.2325439453125 0.47965824604034424 0.6565232872962952 
