14

C -0.8191154599189758 0.5403012037277222 1.4673843383789062 
C 0.46823158860206604 0.13131757080554962 0.8291280269622803 
C 0.5267143249511719 -1.0360158681869507 -0.029152803122997284 
O -0.5188739895820618 -1.2994158267974854 -0.7851564884185791 
C 0.03583215922117233 0.4068640172481537 -2.0232722759246826 
O 0.14899842441082 1.2762364149093628 -1.1397860050201416 
H -0.756003201007843 0.6015163064002991 2.5623624324798584 
H -1.6157910823822021 -0.15231521427631378 1.1766523122787476 
H -1.0768303871154785 1.5489003658294678 1.0983459949493408 
H 1.3929855823516846 0.6007463335990906 1.153902292251587 
H 0.6775205135345459 -1.3942346572875977 1.1313376426696777 
H 1.5553772449493408 -1.3005714416503906 -0.3861162066459656 
H -0.9084998369216919 0.19852124154567719 -2.561493158340454 
H 0.8894543051719666 -0.12185052037239075 -2.4941365718841553 
