16

C 2.245541572570801 -0.4551127552986145 0.22445671260356903 
C 1.256932020187378 0.4609006643295288 -0.46277904510498047 
C 0.44953101873397827 0.013179845176637173 -1.5101228952407837 
N -1.283554196357727 0.027810106053948402 -0.09682591259479523 
C -2.614262104034424 -0.0886089950799942 0.5294462442398071 
C -0.3233726918697357 0.46876463294029236 0.6686213612556458 
O -0.06356855481863022 0.8462976813316345 1.785346269607544 
H 1.8817508220672607 -1.4923744201660156 0.21574582159519196 
H 2.3863613605499268 -0.14905618131160736 1.268275260925293 
H 3.220984935760498 -0.42865172028541565 -0.28336474299430847 
H 1.4979790449142456 1.5265753269195557 -0.4599207639694214 
H -0.04908274486660957 0.6972131133079529 -2.1937153339385986 
H 0.3343416154384613 -1.048139214515686 -1.7252883911132812 
H -3.018296480178833 0.8874843716621399 0.8423802256584167 
H -3.292546033859253 -0.5148969292640686 -0.22150959074497223 
H -2.611152410507202 -0.7546724081039429 1.4071227312088013 
