15

C -0.34550508856773376 -2.883413791656494 -0.26585954427719116 
C -0.001847300911322236 -1.707492709159851 -0.09170246869325638 
C -0.2227303832769394 -0.24386906623840332 0.1189221441745758 
C -0.38240426778793335 0.8956198692321777 1.2066324949264526 
C 0.3403051495552063 1.6013970375061035 0.017948443070054054 
C 1.1781280040740967 0.27063849568367004 -0.08464998751878738 
C -0.6448740363121033 0.8672000765800476 -0.954200267791748 
H -0.5179008841514587 -3.7924509048461914 -0.8226608633995056 
H -1.4253077507019043 1.2074135541915894 1.3912973403930664 
H 0.18465189635753632 0.7599925994873047 2.140082359313965 
H 0.7360329627990723 2.604123592376709 -0.10002447664737701 
H 1.2225937843322754 -1.4529335498809814 -0.41840434074401855 
H 1.925621747970581 0.06943805515766144 0.7111330032348633 
H -0.34941351413726807 0.6297754645347595 -1.9820903539657593 
H -1.6973505020141602 1.1745610237121582 -0.8664233088493347 
