9

O -2.899843454360962 -0.4919932782649994 -0.5220735669136047 
C -1.8304266929626465 -0.04912203177809715 -0.23325498402118683 
C -0.6120724081993103 0.2522774934768677 0.15212585031986237 
N 0.5206749439239502 0.9043888449668884 0.10470442473888397 
C 1.65749192237854 0.24766284227371216 -0.02076934278011322 
N 1.6915063858032227 -1.1446784734725952 0.07373902201652527 
O 0.5575423836708069 -1.6578677892684937 -0.03005044162273407 
H -1.6366798877716064 1.1459842920303345 0.47801080346107483 
H 2.598911762237549 0.7888780236244202 -0.002332807518541813 
