16

C -0.13009342551231384 -0.5304602384567261 -1.966399073600769 
C 0.3277910053730011 0.4535287916660309 -0.8886116743087769 
N -0.9854366183280945 0.5661754012107849 -2.0379223823547363 
C -0.9186340570449829 1.2086071968078613 0.10392997413873672 
C 0.02413487434387207 0.1984301507472992 0.5346333980560303 
C 0.9777117967605591 -0.06581201404333115 1.673429012298584 
C -0.07689373195171356 -1.1081370115280151 1.26567804813385 
H -0.48513683676719666 -1.51479172706604 -1.6262763738632202 
H 0.7228245139122009 -0.6225598454475403 -2.6710734367370605 
H 1.0241042375564575 1.2263246774673462 -1.1885401010513306 
H -0.6676258444786072 2.2653942108154297 0.126739501953125 
H -1.9799102544784546 0.9888960719108582 -0.01746743731200695 
H 2.0135347843170166 -0.28671908378601074 1.4170554876327515 
H 0.8164352774620056 0.47725629806518555 2.599820375442505 
H 0.26889467239379883 -2.004882335662842 0.7594630718231201 
H -0.9317003488540649 -1.2512506246566772 1.9155418872833252 
