17

C 2.3487465381622314 0.23584504425525665 -0.8151870369911194 
C 1.00128173828125 0.1399972140789032 -0.04647533595561981 
C 1.0953305959701538 0.03422803059220314 1.406693696975708 
O -1.2872804403305054 -0.5024279356002808 1.430938720703125 
C -1.5011855363845825 -0.489301472902298 0.20007267594337463 
C -2.6897566318511963 0.23280322551727295 -0.39905601739883423 
O -0.03877527639269829 0.7019426822662354 -0.6167839765548706 
H 2.1802725791931152 -0.09002533555030823 -1.8470261096954346 
H 3.1429028511047363 -0.37080085277557373 -0.3592476546764374 
H 2.662071466445923 1.2865046262741089 -0.8237308859825134 
H 0.8499569296836853 -1.0328649282455444 0.027625273913145065 
H 0.4273390471935272 0.5497850775718689 2.0870447158813477 
H 1.8658490180969238 -0.613649845123291 1.8300341367721558 
H -1.0950037240982056 -1.3142775297164917 -0.4351835548877716 
H -2.8550376892089844 1.1751577854156494 0.13461457192897797 
H -2.5270867347717285 0.4248681664466858 -1.464793086051941 
H -3.5840866565704346 -0.39925798773765564 -0.28127601742744446 
