14

C 0.5474693179130554 1.6473722457885742 0.9374719262123108 
C -0.16431644558906555 0.4873729646205902 0.29102665185928345 
C -0.7730656862258911 -0.6211524605751038 1.083802342414856 
C -0.33376747369766235 -1.53822922706604 -0.9924140572547913 
C 0.0772196501493454 -0.08531427383422852 -1.0680644512176514 
O -0.9936832189559937 0.8655468225479126 -0.8833417892456055 
H 1.2154380083084106 2.1531059741973877 0.22172503173351288 
H 1.1741694211959839 1.2948832511901855 1.7712280750274658 
H -0.1690274327993393 2.377054452896118 1.3269870281219482 
H -1.0109572410583496 -1.5836162567138672 0.02020535245537758 
H 0.03100680746138096 -1.1315422058105469 1.6464499235153198 
H -0.9802278876304626 -1.8864548206329346 -1.803774118423462 
H 0.5039396286010742 -2.2184948921203613 -0.8194065690040588 
H 0.8758025169372559 0.2394682914018631 -1.7318947315216064 
