14

C -0.1567656695842743 -0.8249967098236084 -1.3767229318618774 
C -0.2731696367263794 0.11594843119382858 -0.18542692065238953 
C -1.124116063117981 1.3264936208724976 -0.2283438891172409 
O -1.6156455278396606 0.1329224705696106 0.3804869055747986 
C 0.827808141708374 0.09036387503147125 0.8254926204681396 
O 1.5716298818588257 1.1124613285064697 1.0886340141296387 
N 1.0704782009124756 -0.8799808025360107 1.6947492361068726 
H -0.3468190133571625 -1.8678463697433472 -1.0866780281066895 
H -0.8558827638626099 -0.5243743062019348 -2.1651999950408936 
H 0.848174512386322 -0.779484212398529 -1.8101872205734253 
H -1.5878734588623047 1.5936684608459473 -1.1806278228759766 
H -0.9006940126419067 2.1557271480560303 0.44679343700408936 
H 0.6602479219436646 -1.8301808834075928 1.5833381414413452 
H 1.882627248764038 0.17927813529968262 2.013692855834961 
