14

O 0.3787651062011719 0.8127114772796631 -2.6529061794281006 
C 0.7373579740524292 1.0506770610809326 -1.430495262145996 
C 0.22742609679698944 0.057228412479162216 -0.5620279312133789 
C 0.8970953226089478 -0.5350497364997864 0.7054451704025269 
C -0.5155491232872009 -0.7955722212791443 1.2931164503097534 
C -1.1185933351516724 0.15781407058238983 0.22520633041858673 
H 1.305301308631897 1.9685453176498413 -1.2086889743804932 
H -0.11789638549089432 -0.21633882820606232 -2.0349113941192627 
H 1.4648970365524292 0.22292585670948029 1.2713541984558105 
H 1.5492048263549805 -1.4126732349395752 0.5682392716407776 
H -0.6557307839393616 -0.49918898940086365 2.339543104171753 
H -0.8509653806686401 -1.8286824226379395 1.1509531736373901 
H -2.0395944118499756 -0.16491250693798065 -0.27538803219795227 
H -1.2617182731628418 1.182516098022461 0.610560417175293 
