12

C -1.0336077213287354 0.7655428051948547 -0.5611668229103088 
C -0.336956650018692 -0.4321742057800293 0.04837772622704506 
N -0.1633933186531067 -1.5325123071670532 -0.9154976606369019 
C 1.0154523849487305 -0.9169980883598328 -0.21876847743988037 
C 1.6576735973358154 0.3832840025424957 -0.02824670448899269 
N 1.4439175128936768 1.1001276969909668 0.9380226135253906 
H -0.5972235202789307 1.0171456336975098 -1.5462197065353394 
H -2.088348865509033 0.49509716033935547 -0.7257505059242249 
H -0.9953453540802002 1.6529124975204468 0.07784384489059448 
H 0.23979872465133667 0.33365678787231445 1.3249002695083618 
H -0.3391866385936737 -1.1739606857299805 -1.8673509359359741 
H 1.4884300231933594 -1.660860300064087 0.4213413596153259 
