7

O -0.6323388814926147 0.05538197606801987 2.3771109580993652 
C -0.47174426913261414 -0.43323832750320435 1.299306869506836 
O 0.08397235721349716 -1.0886229276657104 0.4527797996997833 
C 0.4790223240852356 -0.19746769964694977 -1.2232505083084106 
N -0.16635870933532715 0.8460094332695007 -1.0343599319458008 
O -0.4734058678150177 1.4452896118164062 0.03448242321610451 
H 1.1808531284332275 -0.627352237701416 -1.9060696363449097 
