17

C 1.9615871906280518 0.40086907148361206 -0.6351386308670044 
C 0.6851786971092224 0.15211081504821777 0.12639455497264862 
C 0.36457252502441406 -1.3482167720794678 0.5635617971420288 
C -0.9278226494789124 -1.1824313402175903 -0.18146291375160217 
C -0.8301948308944702 0.21597141027450562 -0.40374627709388733 
C -0.9709205627441406 1.2579491138458252 0.7392346262931824 
O 0.4079516530036926 1.1044174432754517 1.1719446182250977 
H 2.8348031044006348 0.24676817655563354 0.01624428853392601 
H 2.035036563873291 -0.29627150297164917 -1.4812999963760376 
H 1.9873836040496826 1.4291390180587769 -1.0172581672668457 
H 1.0229871273040771 -2.1669440269470215 0.2321416139602661 
H 0.281057745218277 -1.374693512916565 1.6596283912658691 
H -2.85078501701355 -0.26798883080482483 -0.7062735557556152 
H -1.5138845443725586 -1.8960288763046265 -0.7577188611030579 
H -1.7251334190368652 0.40775465965270996 -1.1749802827835083 
H -1.7106034755706787 0.9729666113853455 1.5011770725250244 
H -1.1589417457580566 2.2841796875 0.3877396881580353 
