17

C -0.32107076048851013 0.8428629040718079 -1.8276516199111938 
C 1.034870982170105 0.5084254145622253 -1.3917523622512817 
C 0.01526689063757658 0.19708308577537537 -0.400518536567688 
C -0.2687332332134247 0.7882961630821228 0.8832149505615234 
C -0.7372826337814331 -0.47458651661872864 1.5205116271972656 
C 0.16756004095077515 -1.668334722518921 1.224463939666748 
C -0.6280725002288818 -1.1062971353530884 0.09394988417625427 
H -0.8561487793922424 0.2858702540397644 -2.609924077987671 
H -0.6940498352050781 1.860957384109497 -1.6683629751205444 
H 1.6460193395614624 1.7279502153396606 -0.24463395774364471 
H 1.5708621740341187 -0.23849807679653168 -1.980847716331482 
H -0.5703743696212769 1.8155992031097412 1.0696625709533691 
H 1.5710591077804565 1.7796409130096436 0.5891709923744202 
H -1.5653046369552612 -0.5637727379798889 2.2300326824188232 
H -0.16249951720237732 -2.6338753700256348 1.6041101217269897 
H 1.244622826576233 -1.4697715044021606 1.2797958850860596 
H -1.4467253684997559 -1.6515495777130127 -0.37122225761413574 
