16

C 1.76060152053833 0.27985668182373047 0.3787906765937805 
N 1.0072002410888672 -0.6640024185180664 -0.3691025674343109 
C 0.2327994704246521 -1.5146479606628418 0.36247724294662476 
C -0.9894375801086426 0.3516335189342499 0.7519974112510681 
C -0.7936894297599792 1.1439379453659058 -0.5404197573661804 
C -0.22089335322380066 -0.15452927350997925 -1.1455283164978027 
C -1.068664789199829 -0.9542014598846436 -0.10076441615819931 
H 2.3252358436584473 -0.20792043209075928 1.1801023483276367 
H 0.46461841464042664 0.6077444553375244 1.062300443649292 
H 2.349384307861328 0.9706872701644897 -0.2306385040283203 
H 0.5311365723609924 -1.9139997959136963 1.3319815397262573 
H -1.7102587223052979 0.5668212175369263 1.540317177772522 
H -0.1853111833333969 2.0589165687561035 -0.5357041358947754 
H -1.7478752136230469 1.3217675685882568 -1.065016746520996 
H -0.16378892958164215 -0.3336319625377655 -2.2228646278381348 
H -1.9820252656936646 -1.5256658792495728 -0.3123738169670105 
