14

C 2.622156858444214 -1.4806172847747803 -0.5326786637306213 
C 1.7860264778137207 -0.8749537467956543 0.11130078136920929 
C 0.7311781644821167 -0.17159968614578247 0.8408992886543274 
C 0.09230618178844452 0.9984246492385864 0.07299541682004929 
C -1.3691266775131226 1.0722742080688477 0.3693515956401825 
C -1.3373161554336548 0.1980050504207611 -0.8921530842781067 
H 3.3722965717315674 -2.0026462078094482 -1.0897328853607178 
H 0.018014686182141304 -0.9140439033508301 1.2602131366729736 
H 1.168426513671875 0.3435843884944916 1.717308521270752 
H -0.20416715741157532 0.365098774433136 -1.2420029640197754 
H -1.8502132892608643 2.045457601547241 0.23383529484272003 
H -1.7630326747894287 0.5372289419174194 1.2445392608642578 
H -1.5156856775283813 -0.8658342361450195 -0.724910318851471 
H -1.8517167568206787 0.6332755088806152 -1.7530584335327148 
