13

O 0.48643821477890015 -1.5288530588150024 -0.9351322054862976 
C 0.07215449959039688 -0.40148240327835083 -0.19122424721717834 
C -0.5153916478157043 0.6219070553779602 -1.1991815567016602 
O 0.5642576813697815 1.4754722118377686 -1.101604700088501 
C 1.2312439680099487 0.6732824444770813 -0.06236410513520241 
C -0.5701472759246826 -0.7478082776069641 1.1092617511749268 
O -0.49509477615356445 -1.9100580215454102 1.4875200986862183 
H 0.25189509987831116 -2.2859814167022705 -0.3589450418949127 
H -1.5900731086730957 1.1811819076538086 -0.9532275795936584 
H -1.7753673791885376 1.3106932640075684 0.06442364305257797 
H 1.2449618577957153 1.214591383934021 0.8984661102294922 
H 2.217700242996216 0.347921758890152 -0.399221271276474 
H -1.12257719039917 0.04913287237286568 1.6412290334701538 
