10

O -1.8493883609771729 -0.9570041298866272 0.38551366329193115 
C -0.9052788019180298 -0.2539628744125366 0.08502936363220215 
C 0.6378952860832214 -0.8711546063423157 0.3568034768104553 
N 1.1525012254714966 0.3683888018131256 0.6632385849952698 
C -0.7572984099388123 1.0330052375793457 -0.4816463589668274 
H 0.5114947557449341 -1.5141117572784424 1.2478668689727783 
H 0.977706253528595 -1.4530038833618164 -0.5078648924827576 
H 1.7678587436676025 0.6497340798377991 -0.12512855231761932 
H -0.023112351074814796 1.1918256282806396 -1.2724385261535645 
H -1.5123783349990845 1.806283712387085 -0.3513737618923187 
