8

O -0.4025944769382477 -1.5884068012237549 -0.012258474715054035 
C -0.5246737003326416 0.333139032125473 1.3810760974884033 
C 0.4844242334365845 0.6193992495536804 0.5121552348136902 
C 0.03864084929227829 0.43245694041252136 -0.8679904937744141 
N -0.6624512672424316 -0.709354817867279 -1.0130417346954346 
H -0.7169544696807861 -1.1026982069015503 0.9882609844207764 
H 1.4582982063293457 1.0277408361434937 0.766566276550293 
H 0.32531070709228516 0.987723708152771 -1.7547677755355835 
