15

N -1.6037652492523193 0.5069652199745178 0.31178945302963257 
C -0.4444642663002014 0.6770231127738953 0.997584879398346 
C 0.5436375141143799 -1.098724365234375 0.7263360023498535 
C 0.7235844135284424 -1.3051292896270752 -0.6527180671691895 
O -0.5662786960601807 0.005839238408952951 -1.8582117557525635 
C 0.6015363931655884 1.5625224113464355 0.5145586133003235 
N 1.5595446825027466 2.1323957443237305 0.10340554267168045 
H -2.210026264190674 1.3070241212844849 0.5049691200256348 
H -1.2087315320968628 0.36412346363067627 -1.0163965225219727 
H -0.48427119851112366 0.653857946395874 2.0940842628479004 
H -0.18271233141422272 -1.7056920528411865 1.2500183582305908 
H 1.4179625511169434 -0.8167019486427307 1.3178588151931763 
H 1.6154589653015137 -0.9302394986152649 -1.157884955406189 
H 0.17421025037765503 -2.079500436782837 -1.1790980100631714 
H 0.06431490927934647 0.7262358069419861 -1.9562952518463135 
