11

N -0.2919135093688965 -0.5265645980834961 1.2915303707122803 
C -0.00468034902587533 0.6710250377655029 0.4780815541744232 
C -0.05150958150625229 -0.1766364425420761 -0.7824963331222534 
O 1.3410264253616333 -0.2931405007839203 -1.1025792360305786 
C 1.6794941425323486 0.9110702872276306 -0.3025943338871002 
C -0.4903510510921478 -1.3429603576660156 0.11521753668785095 
H -0.9927705526351929 -0.5631935000419617 2.045712947845459 
H -0.52644944190979 1.581329584121704 0.7911023497581482 
H -0.6866752505302429 0.05723080039024353 -1.6434277296066284 
H 1.3695333003997803 1.7220333814620972 -1.053386926651001 
H -1.3457040786743164 -2.040193796157837 0.1628398448228836 
