13

N -0.6324100494384766 -1.4235247373580933 -2.115168333053589 
C -0.062448300421237946 -0.32937559485435486 -1.6517057418823242 
O 0.5279452800750732 0.7065919041633606 -2.1106629371643066 
C -0.27409058809280396 0.001981160370633006 -0.2044939547777176 
O 0.8212305903434753 0.05948493629693985 0.6331711411476135 
C 0.8960906267166138 1.094663381576538 1.5557464361190796 
N -0.14632350206375122 1.6616904735565186 2.0090203285217285 
H -0.011189515702426434 -1.8677256107330322 -2.833548069000244 
H -0.9596169590950012 -1.884209156036377 -0.5584348440170288 
H -1.0210970640182495 0.7779126763343811 0.01743292063474655 
H -0.9509038925170898 -1.6135962009429932 0.23506766557693481 
H 1.9145532846450806 1.0835868120193481 1.9714651107788086 
H -0.10173974186182022 1.7325199842453003 3.052109956741333 
