11

N 1.4683964252471924 0.7860336303710938 -1.7660279273986816 
C 0.8774024844169617 0.10797823220491409 -0.9061529636383057 
O -0.9355223178863525 0.07529325038194656 -0.9648097157478333 
C -0.8221853375434875 0.3148250877857208 0.32962751388549805 
C -0.932866632938385 -0.9316635131835938 1.227043628692627 
O -0.1805790364742279 -1.8954211473464966 1.0787808895111084 
H 2.0076541900634766 1.6136749982833862 -1.4639644622802734 
H 0.964633584022522 -0.9530045390129089 -0.6010119915008545 
H -1.2374612092971802 1.232537031173706 0.7703688144683838 
H 0.5649168491363525 0.5664589405059814 0.3532944619655609 
H -1.7743892669677734 -0.9167119264602661 1.9428515434265137 
