9

C 0.7103205323219299 0.8092135787010193 -0.473454087972641 
C -0.4265972971916199 -0.18350210785865784 -0.41552793979644775 
C -0.9394500851631165 -0.6928274035453796 0.7714956402778625 
N -1.4524569511413574 -1.0759625434875488 1.8279085159301758 
H 1.6279876232147217 0.3498997092247009 -0.8768040537834167 
H 0.9569942951202393 1.1948248147964478 0.5220780372619629 
H 0.4687483012676239 1.6605689525604248 -1.121593713760376 
H -0.15722820162773132 -1.4501749277114868 1.1131824254989624 
H -0.7883182764053345 -0.6120400428771973 -1.3472849130630493 
