15

C -1.9557251930236816 -0.15723785758018494 -0.3279888331890106 
C -0.6916158199310303 0.5117903351783752 -0.4297276437282562 
O -0.6557084918022156 1.0471421480178833 1.3240137100219727 
C 0.5779789090156555 -0.2876982092857361 -0.5767630338668823 
C 1.8962465524673462 0.17483797669410706 -0.07386231422424316 
N 1.1365636587142944 -0.8570259809494019 0.6664605736732483 
H -1.6554933786392212 0.43488338589668274 1.0161422491073608 
H -2.8065290451049805 0.29765453934669495 -0.8403857350349426 
H -1.9373093843460083 -1.2501580715179443 -0.35439449548721313 
H -0.6574008464813232 1.501119613647461 -0.8924720883369446 
H -0.07219851016998291 0.3162500560283661 1.6656248569488525 
H 0.5776106119155884 -0.9264552593231201 -1.4654512405395508 
H 1.9561212062835693 1.1369534730911255 0.43543124198913574 
H 2.795715093612671 -0.1260395497083664 -0.6132025718688965 
H 1.5233817100524902 -1.7907016277313232 0.5086231827735901 
