18

C 1.9328558444976807 -1.1542567014694214 -0.1556171178817749 
C 1.2238849401474 0.18306896090507507 0.12915873527526855 
C 0.061117514967918396 0.503068745136261 -0.8227144479751587 
C -0.9646832346916199 1.458316445350647 -0.24684645235538483 
C -2.2019684314727783 -0.11216366291046143 1.066083550453186 
O -1.354877233505249 -1.1280008554458618 1.3853917121887207 
H 2.754974842071533 -1.3230135440826416 0.5510497093200684 
H 1.2383880615234375 -2.004242181777954 -0.08220420777797699 
H 2.347144842147827 -1.1584008932113647 -1.1766170263290405 
H 0.8448405861854553 0.17509818077087402 1.164878010749817 
H 1.9449800252914429 1.009423851966858 0.09682107716798782 
H -0.4346252977848053 -0.41719627380371094 -1.168033242225647 
H 0.4496126174926758 0.9437587857246399 -1.769582986831665 
H -1.754388689994812 1.7637314796447754 -0.9456620812416077 
H -0.5304891467094421 2.3178372383117676 0.28045445680618286 
H -1.647881031036377 0.9714670181274414 0.910868763923645 
H -2.800649404525757 -0.34150514006614685 0.16682177782058716 
H -1.1082369089126587 -1.686991572380066 0.615749716758728 
