13

C -2.022789239883423 -0.45904621481895447 -0.16063393652439117 
N -0.6473348140716553 -0.1886233240365982 0.23501990735530853 
C -0.07363071292638779 1.0268125534057617 0.5048832297325134 
C 0.4227004051208496 0.24673786759376526 -0.677082896232605 
C 1.7655949592590332 -0.16422948241233826 -0.20264728367328644 
C 2.853637456893921 -0.7063618302345276 -0.6166589260101318 
H -2.0812082290649414 -1.4697027206420898 -0.5827156901359558 
H -2.4069154262542725 0.26501527428627014 -0.901290237903595 
H -2.6554322242736816 -0.4127749800682068 0.73549884557724 
H -0.6010662913322449 1.971432089805603 0.6505962014198303 
H 1.559877872467041 0.383405476808548 0.911914587020874 
H 0.15373612940311432 0.3861705958843231 -1.7259985208511353 
H 3.8479998111724854 -0.9589243531227112 -0.27058422565460205 
