11

C -1.7710577249526978 -0.2020382285118103 0.06405117362737656 
C -0.379629909992218 -0.5411370992660522 -0.14546571671962738 
N 0.2641725242137909 -1.6036131381988525 0.2675904631614685 
O 1.780502438545227 -1.091449499130249 0.34758979082107544 
C 1.7486931085586548 0.18900667130947113 0.07799308001995087 
C 0.48205074667930603 0.6751193404197693 -0.2588133215904236 
H -2.446000099182129 -0.9563221335411072 0.468388170003891 
H -0.4506029784679413 0.8924016356468201 0.6458777189254761 
H -2.204308032989502 0.5034164190292358 -0.6470868587493896 
H 2.6931509971618652 0.7230424880981445 0.17589613795280457 
H 0.3062588572502136 1.4943516254425049 -0.9567875862121582 
