6

O -0.09862301498651505 2.029341697692871 0.0034432848915457726 
C 0.41774681210517883 0.9945533275604248 -0.00954746175557375 
C -2.0538015365600586 -0.6143398880958557 0.04623278230428696 
N -0.9960840940475464 -1.1838802099227905 0.025308530777692795 
C 1.3464323282241821 -0.005941846873611212 -0.03244222328066826 
N 1.3841084241867065 -1.214020013809204 -0.03303191065788269 
