13

C 1.6713452339172363 -0.0697178766131401 0.02132701501250267 
C 0.5539068579673767 0.1865457445383072 -0.8367758393287659 
C -0.2766784131526947 -0.9862418174743652 -0.8259557485580444 
N -1.318171501159668 -0.7104802131652832 -0.05726037174463272 
C -1.1319047212600708 0.6178897023200989 0.47706764936447144 
C -0.29095444083213806 1.2853724956512451 -0.45123663544654846 
H 0.16487739980220795 0.048600874841213226 1.325116753578186 
H 2.2694308757781982 -0.978122353553772 -0.10082217305898666 
H 2.1824028491973877 0.7770317196846008 0.47735410928726196 
H -0.042168989777565 -2.0076282024383545 -1.1191056966781616 
H -2.012953996658325 -1.3751535415649414 0.2713044285774231 
H -1.9735777378082275 1.0120418071746826 1.050395131111145 
H 0.1665835827589035 2.231125831604004 -0.17160674929618835 
