15

C -1.212906002998352 0.6329220533370972 1.1245431900024414 
C -0.42757320404052734 -0.4852585196495056 0.4749719798564911 
C -0.25156736373901367 -0.754359781742096 -1.7472103834152222 
N 1.0612808465957642 -0.9656482338905334 -1.270693063735962 
C 1.0526654720306396 -0.2441575974225998 0.023606648668646812 
C 1.320448637008667 1.19110906124115 -0.19905954599380493 
N 1.474989414215088 2.35048770904541 -0.32120588421821594 
H -1.3409327268600464 1.4730194807052612 0.43273302912712097 
H -2.210111618041992 0.28954988718032837 1.4204047918319702 
H -0.6860161423683167 1.0131864547729492 2.019197463989258 
H -0.5087525844573975 -1.4597859382629395 0.9683176279067993 
H -1.0153230428695679 -0.844709038734436 -0.6523664593696594 
H -0.3655167520046234 0.34128323197364807 -1.885021448135376 
H 1.3309942483901978 -1.9320194721221924 -1.1498963832855225 
H 1.7783206701278687 -0.6056193709373474 0.7616785168647766 
