15

C -0.9385185241699219 -1.4362587928771973 0.6686093807220459 
C 0.032102908939123154 -0.07760664820671082 -0.3703927993774414 
C -0.7986724376678467 0.5300731062889099 -1.4403126239776611 
N 0.41582030057907104 -0.23448535799980164 -1.7139573097229004 
C 0.5866393446922302 0.7767224907875061 0.74222731590271 
O -0.1772971898317337 1.3474888801574707 1.5435140132904053 
N 1.9510911703109741 0.9521939158439636 0.6112563610076904 
H -1.5127183198928833 -0.7419061660766602 1.2689599990844727 
H -0.23296689987182617 -2.042329788208008 1.253351092338562 
H -1.5920473337173462 -2.0719451904296875 0.05439246818423271 
H -0.7260259389877319 1.6249127388000488 -1.4807372093200684 
H -1.7713062763214111 0.09815992414951324 -1.6866154670715332 
H 0.06745035201311111 -1.254753828048706 -0.4120767116546631 
H 2.402520179748535 1.5470890998840332 1.2984968423843384 
H 2.293928623199463 0.9826457500457764 -0.3367154598236084 
