11

C -0.9215964078903198 -0.891045093536377 0.6130703687667847 
C -0.6536675691604614 0.5488064885139465 0.4466201066970825 
C 0.9527899026870728 0.2848148047924042 -1.5173866748809814 
C 2.2398576736450195 0.31391769647598267 -1.3711491823196411 
C 2.0537033081054688 0.6006205677986145 -0.01899445615708828 
N 1.7877380847930908 0.8292009830474854 1.1285715103149414 
H -0.09320387244224548 -1.3976994752883911 1.124472737312317 
H -1.1496156454086304 -1.394720196723938 -0.3299407958984375 
H -1.7915445566177368 -0.9754540920257568 1.2980115413665771 
H -0.387958824634552 1.1382808685302734 1.3176095485687256 
H -1.0536160469055176 1.0909634828567505 -0.4049097001552582 
