17

C 2.596935272216797 0.7185748219490051 0.5854143500328064 
O 1.3377691507339478 0.7879460453987122 -0.07381631433963776 
C 0.6198076009750366 -0.41653206944465637 0.041645120829343796 
C -0.22438345849514008 -0.6501685976982117 1.3022806644439697 
C -0.845117449760437 -0.35254764556884766 -0.02276470698416233 
C -1.7491697072982788 0.6463078856468201 -0.4757545292377472 
O -2.7984330654144287 -0.649210512638092 -1.3996179103851318 
H 3.2317492961883545 -0.08383437991142273 0.1667483150959015 
H 2.4794270992279053 0.5386729836463928 1.6682387590408325 
H 3.0928597450256348 1.684264063835144 0.428295373916626 
H 1.1423566341400146 -1.2840147018432617 -0.38557228446006775 
H -0.30267295241355896 -1.661212682723999 1.7118779420852661 
H -0.18621619045734406 0.14474265277385712 2.0505740642547607 
H -1.7913185358047485 -1.099087119102478 -0.8127545118331909 
H -2.56562876701355 0.9950835108757019 0.15772591531276703 
H -1.49027681350708 1.3037124872207642 -1.3091181516647339 
H -2.583040952682495 -0.5901716947555542 -2.3578481674194336 
