15

C -0.4502151608467102 -1.47137451171875 1.0158054828643799 
C -0.2808280289173126 0.2555176019668579 0.06130805239081383 
C -0.17291437089443207 1.4080960750579834 0.9948296546936035 
N -1.2643380165100098 1.2495112419128418 0.037751492112874985 
C 0.8514615893363953 -0.07373867928981781 -0.8864896297454834 
O 1.9678668975830078 -0.40811845660209656 -0.4642750024795532 
N 0.48962903022766113 0.21812012791633606 -2.1867542266845703 
H -0.821712076663971 -2.2524163722991943 0.34513336420059204 
H -1.0593161582946777 -1.3827940225601196 1.9240983724594116 
H 0.5994373559951782 -1.5788726806640625 1.259761095046997 
H -0.3836251497268677 1.2671650648117065 2.05462646484375 
H 0.649518609046936 2.0991294384002686 0.7584720253944397 
H -1.204676866531372 -0.4466964900493622 0.260024756193161 
H 1.207977294921875 0.09010618180036545 -2.8928422927856445 
H -0.12826475501060486 1.0263657569885254 -2.281449794769287 
