12

C -0.6397641897201538 0.3541446030139923 -1.1472938060760498 
C -0.29641100764274597 -0.13457763195037842 0.2576511800289154 
C 1.1815392971038818 -0.45190298557281494 0.4980919361114502 
O -1.193036675453186 -0.9170664548873901 0.8707820177078247 
H -1.6776247024536133 0.710584819316864 -1.171104073524475 
H -0.5517314672470093 -0.5229681134223938 -1.8071942329406738 
H 0.04392269253730774 1.1424933671951294 -1.4749517440795898 
H -0.4150480031967163 1.1396116018295288 1.0423333644866943 
H 1.3523119688034058 -0.6276200413703918 1.5682677030563354 
H 1.8337042331695557 0.3574097454547882 0.13728275895118713 
H 1.4013745784759521 -1.3796021938323975 -0.05725971609354019 
H -1.0392366647720337 0.32949337363243103 1.2833949327468872 
