14

C -2.208310842514038 0.08684604614973068 0.35993635654449463 
C -0.7234522104263306 0.36725080013275146 0.12579552829265594 
O -0.28381747007369995 1.5288296937942505 0.3549865484237671 
C 0.10625755786895752 -0.7096084356307983 -0.24516314268112183 
C 1.8359957933425903 0.6661400198936462 -0.5067199468612671 
C 1.5812307596206665 -0.6236939430236816 0.12027689069509506 
H -2.5092995166778564 -0.91380774974823 0.02712538093328476 
H -2.42370343208313 0.1776614785194397 1.4338898658752441 
H -2.811716079711914 0.8418704271316528 -0.16140836477279663 
H -0.27295827865600586 -1.6105934381484985 -0.7268105149269104 
H 2.040827512741089 1.5740149021148682 0.0508219450712204 
H 1.7601028680801392 0.7389255166053772 -1.5900533199310303 
H 2.094529151916504 -1.4491407871246338 -0.39464542269706726 
H 1.7991081476211548 -0.6602444648742676 1.195298194885254 
