14

O -0.06949901580810547 -1.6254924535751343 0.23537369072437286 
C 1.0697842836380005 -0.4454002380371094 0.08362065255641937 
N 0.7524118423461914 0.6494273543357849 0.9125425219535828 
C -0.7485619187355042 0.7481048107147217 0.9247395992279053 
C -1.1165183782577515 0.4821280837059021 -0.5641281008720398 
C -0.18067967891693115 -0.6620814800262451 -0.9421818852424622 
C 0.8593776822090149 -0.5599177479743958 -1.7949179410934448 
H 2.0416507720947266 -0.930421769618988 0.19441083073616028 
H 1.0783157348632812 0.45572319626808167 1.8643447160720825 
H -1.2003364562988281 -0.01640508323907852 1.578754186630249 
H -1.0263216495513916 1.743147611618042 1.2687493562698364 
H -0.869520902633667 1.3721630573272705 -1.1556589603424072 
H -2.1617307662963867 0.17957191169261932 -0.7210870385169983 
H 1.5716283321380615 -1.3905471563339233 -1.8845617771148682 
