16

C -2.2538764476776123 0.23080851137638092 -1.3370919227600098 
C -1.0995206832885742 0.2867221534252167 -0.35946154594421387 
C -0.5909335613250732 1.0972998142242432 0.5150372385978699 
C 0.6075426340103149 1.3921985626220703 1.1261073350906372 
C 1.5849255323410034 -0.647607147693634 1.044991374015808 
C 0.9442815780639648 -1.5488965511322021 0.28382062911987305 
N 2.065157651901245 -0.9517372846603394 -0.294955849647522 
H -1.8787314891815186 0.16349758207798004 -2.364147424697876 
H -2.8545923233032227 1.153786540031433 -1.261938452720642 
H -2.9085657596588135 -0.6197861433029175 -1.1110973358154297 
H 0.624657154083252 1.5281939506530762 2.2128512859344482 
H 1.3643574714660645 1.982099175453186 0.5982673168182373 
H 2.0705366134643555 -0.6077790260314941 2.0142314434051514 
H -0.4116065502166748 -0.6987863779067993 -0.3359251916408539 
H 0.5830295085906982 -2.5650510787963867 0.2017066776752472 
H 2.15333890914917 -0.19496314227581024 -0.9323951601982117 
