15

C -2.322141647338867 -0.2704279124736786 0.02677425742149353 
N -0.9898425340652466 -0.2806127965450287 -0.5475149750709534 
C 0.13577061891555786 0.04790052771568298 0.16659939289093018 
N 0.2968323230743408 0.27966514229774475 1.4268890619277954 
C 1.3959978818893433 0.4460917115211487 -1.0514895915985107 
O 0.9450430274009705 0.6110810041427612 -2.1774299144744873 
C 2.620598554611206 0.1587544083595276 -0.450923353433609 
H -3.0182623863220215 -0.700400710105896 -0.7029569149017334 
H -2.6726832389831543 0.7431280016899109 0.28809410333633423 
H -2.3537111282348633 -0.8959941267967224 0.9304293990135193 
H -0.9047644138336182 -0.11486813426017761 -1.5498096942901611 
H -0.604925274848938 0.26984870433807373 1.9259780645370483 
H 1.229587197303772 -0.704461395740509 -0.22753705084323883 
H 3.542653799057007 0.20397207140922546 -1.0309267044067383 
H 2.6638193130493164 0.19337643682956696 0.6355148553848267 
