16

C 1.1623642444610596 -1.7142339944839478 0.22139155864715576 
C 0.23813778162002563 -1.0643976926803589 1.1201438903808594 
C -1.167990803718567 -1.1783045530319214 0.7414970993995667 
C -1.4353103637695312 -0.10125432908535004 -0.06912252306938171 
C -0.237417072057724 0.7176001667976379 -0.09923562407493591 
C -0.06497097760438919 2.039991617202759 -0.7906889915466309 
N 0.5189085602760315 0.3451440930366516 1.0508863925933838 
H 0.6009328961372375 -0.5915794968605042 -0.7922546863555908 
H 0.9069229960441589 -2.7341039180755615 -0.08768977224826813 
H 2.2187843322753906 -1.5142319202423096 0.4170466959476471 
H -1.7614927291870117 -2.079624891281128 0.8563612699508667 
H -2.350816011428833 0.18880300223827362 -0.5807226300239563 
H -0.7772519588470459 2.7740468978881836 -0.3852147161960602 
H 0.9498052597045898 2.4243249893188477 -0.7090357542037964 
H -0.29769977927207947 1.9308886528015137 -1.863320231437683 
H 1.497093677520752 0.5569315552711487 0.9699581265449524 
