13

C 1.1342365741729736 -1.314391016960144 0.35090652108192444 
C 1.3873289823532104 -0.11031952500343323 -0.32076576352119446 
O 2.1332285404205322 0.40983936190605164 -1.156839370727539 
C -0.5662070512771606 0.4999338984489441 -0.5879690647125244 
O -1.118789792060852 -0.531510055065155 -1.3043148517608643 
C -1.1946569681167603 0.8061397075653076 0.7083067893981934 
O -1.0149247646331787 0.22330084443092346 1.7803210020065308 
H 1.9912283420562744 -1.9642999172210693 0.5707818865776062 
H 0.3493158221244812 -1.2882142066955566 1.1158742904663086 
H 1.053208589553833 0.608817994594574 0.5948405861854553 
H -0.28238195180892944 1.3637676239013672 -1.2120766639709473 
H -2.099968671798706 -0.47937503457069397 -1.209463119506836 
H -1.7716177701950073 1.7763104438781738 0.6703978776931763 
