16

C -0.9799587726593018 -1.1491144895553589 -1.0080310106277466 
C -0.9871153235435486 -0.3619738221168518 0.29611411690711975 
C 0.3030276298522949 -0.19478631019592285 1.0629887580871582 
C 1.5615360736846924 -0.15586785972118378 0.44830122590065 
C -0.8441368341445923 1.1345181465148926 0.1867247372865677 
O -0.27998992800712585 1.703527808189392 -0.8116048574447632 
H -0.2583388090133667 -0.7343403100967407 -1.7206954956054688 
H -1.9705066680908203 -1.0978385210037231 -1.4810068607330322 
H -0.7347339987754822 -2.2049338817596436 -0.8285415768623352 
H -1.8140532970428467 -0.6591705679893494 0.9528813362121582 
H 0.22276557981967926 0.018388302996754646 2.1272482872009277 
H 1.698897123336792 -0.6973767280578613 -0.490287721157074 
H 1.7268013954162598 1.187070608139038 -0.2213011085987091 
H 2.44222092628479 -0.14520080387592316 1.0901362895965576 
H -1.1929597854614258 1.7328376770019531 1.0446768999099731 
H 1.065861701965332 1.6454179286956787 -0.647918164730072 
