11

C 1.1002538204193115 0.5086199045181274 -0.6134970188140869 
C 0.11854587495326996 -0.6013017296791077 -0.21449674665927887 
C -1.275633692741394 -0.40324562788009644 -0.3361923396587372 
O -1.6771793365478516 0.5607024431228638 0.4428505599498749 
C -0.4704098105430603 0.2613379657268524 1.4802347421646118 
N -0.3663177788257599 0.039824724197387695 2.633256435394287 
H 2.080927610397339 0.3137868046760559 -0.1626318395137787 
H 0.7609980702400208 1.505980372428894 -0.3226028382778168 
H 1.235870122909546 0.49624326825141907 -1.7063199281692505 
H 0.500432014465332 -1.6141005754470825 -0.3863706886768341 
H -2.0074868202209473 -1.0678473711013794 -0.8142306208610535 
