11

O 1.416259765625 -0.6652564406394958 -0.41019967198371887 
C 1.23101806640625 0.6704490780830383 -0.6177189946174622 
O 0.16511988639831543 0.9685182571411133 -1.485044240951538 
C -0.7818365097045898 -0.039041370153427124 -1.2870967388153076 
C -1.0963654518127441 -0.29552802443504333 0.03587646782398224 
C -0.19898028671741486 0.05553765222430229 1.097625494003296 
C 1.2160379886627197 0.034558165818452835 0.8778977394104004 
H -1.4187763929367065 -0.23258686065673828 -2.143738031387329 
H -1.9701826572418213 -0.8908502459526062 0.2874866724014282 
H -0.5885403156280518 0.4180888831615448 2.0462145805358887 
H 2.0262463092803955 -0.023889178410172462 1.5986970663070679 
