13

C 1.586157202720642 -0.21906760334968567 -0.2616909444332123 
C 0.34042122960090637 0.6386047601699829 -0.06868967413902283 
C -0.45286819338798523 0.3340930938720703 1.1348217725753784 
N -0.6837276816368103 0.47698527574539185 -1.1447604894638062 
C -1.6110433340072632 -0.42683491110801697 -0.804489016532898 
O -2.8457987308502197 -0.43893665075302124 -0.9016913175582886 
H 1.340622901916504 -1.2910488843917847 -0.23508618772029877 
H 2.0394434928894043 0.022509615868330002 -1.2364751100540161 
H 2.3360376358032227 -0.011899761855602264 0.5150567293167114 
H 0.5950886607170105 1.7069073915481567 -0.06393694877624512 
H -1.2212169170379639 1.0311665534973145 1.4711495637893677 
H -0.27769970893859863 -0.5430402159690857 1.753092885017395 
H -1.1454167366027832 -1.279438853263855 -0.15730078518390656 
