16

N 2.1061642169952393 1.0632959604263306 0.6170465350151062 
C 1.0570247173309326 0.49336227774620056 -0.09326887875795364 
C 0.8160322308540344 -1.013273000717163 -0.003226982429623604 
C -0.6859881281852722 -1.2726103067398071 0.26019978523254395 
C -1.5102107524871826 -0.07982088625431061 -0.30445000529289246 
C -0.6130491495132446 1.1191316843032837 -0.21368582546710968 
O 0.4566478431224823 1.06905996799469 -1.218208909034729 
H 2.2211551666259766 2.0189263820648193 0.2446090281009674 
H 1.1289905309677124 -1.4243922233581543 -0.9734984636306763 
H 1.4528427124023438 -1.439312219619751 0.7788829207420349 
H -0.8427592515945435 -1.3146610260009766 1.3480175733566284 
H -1.011056661605835 -2.2358789443969727 -0.15447372198104858 
H -1.7869704961776733 -0.258921355009079 -1.3569444417953491 
H -2.436706781387329 0.06451665610074997 0.2680039703845978 
H 0.6830441951751709 1.1114345788955688 0.9517627358436584 
H -0.9687554836273193 2.1387054920196533 -0.047729313373565674 
