15

C 1.2875003814697266 1.1123617887496948 0.16008718311786652 
C 0.16261494159698486 0.9304156303405762 -0.8040217757225037 
C -1.3575695753097534 -0.8225230574607849 0.3555554449558258 
C -0.9718488454818726 -0.8746432662010193 1.7354708909988403 
C -0.8060850501060486 -0.8045650124549866 2.9502670764923096 
C 0.3862801492214203 0.4112621247768402 -2.0647647380828857 
C 0.7162977457046509 -0.18427641689777374 -3.1184115409851074 
H 2.1560704708099365 0.4702686369419098 -0.059786200523376465 
H 1.6100233793258667 2.166370153427124 0.010589457117021084 
H 1.0203322172164917 0.9950898289680481 1.2166568040847778 
H -0.9553695321083069 0.20044395327568054 -0.18613485991954803 
H -0.9473178386688232 -1.6432263851165771 -0.24367459118366241 
H -2.4516348838806152 -0.763788104057312 0.18258266150951385 
H -0.8954095840454102 -0.9726309180259705 4.011696815490723 
H 1.0461163520812988 -0.22055846452713013 -4.14611291885376 
