12

C 0.40076059103012085 -0.9658758640289307 -0.3977150022983551 
C 0.8313087224960327 0.42535215616226196 -0.8563398718833923 
C 0.06437282264232635 1.5009267330169678 -0.3636592626571655 
C -0.9173207879066467 0.823919951915741 0.5732250213623047 
O -0.29925161600112915 0.13662131130695343 1.7089909315109253 
C -0.7364473342895508 -0.6476745009422302 0.5770185589790344 
H 1.1798571348190308 -1.5874996185302734 0.07268038392066956 
H 0.023891301825642586 -1.50323486328125 -1.285239577293396 
H 1.5446499586105347 0.5677388906478882 -1.6746304035186768 
H 1.2893952131271362 1.242553472518921 0.05362438037991524 
H -1.8373596668243408 1.3602192401885986 0.817340612411499 
H -1.5438562631607056 -1.3530468940734863 0.7747042179107666 
