13

N -0.29896610975265503 2.011258840560913 -0.5077569484710693 
C 0.0644734725356102 0.510017454624176 -0.9967482686042786 
O 0.4797041416168213 0.2904406487941742 -2.111149311065674 
C -0.22495737671852112 -0.16078345477581024 0.23038698732852936 
C -0.475634902715683 -1.647589921951294 0.3741881847381592 
C 0.7292903065681458 -1.0264558792114258 1.023343563079834 
H -0.8718917965888977 2.48412823677063 -1.208870768547058 
H 0.5541536808013916 2.5536913871765137 -0.3309781849384308 
H -0.7780776619911194 1.3233323097229004 0.38256415724754333 
H -0.32869625091552734 -2.264369010925293 -0.5168800950050354 
H -1.3185229301452637 -1.95474374294281 0.9920790791511536 
H 0.7586750984191895 -0.8913626074790955 2.0979607105255127 
H 1.7104500532150269 -1.2275640964508057 0.5718605518341064 
