16

C -1.7009787559509277 1.5313993692398071 -1.3550746440887451 
N -0.9476592540740967 0.4633440673351288 -1.980454921722412 
C -0.03794555738568306 -0.21469157934188843 -1.502131462097168 
O 0.753373920917511 0.666324257850647 0.17479704320430756 
C 0.21323555707931519 -0.44881317019462585 0.6429537534713745 
C 1.1691358089447021 -1.3292694091796875 1.4786676168441772 
O 1.6679781675338745 -0.5347237586975098 2.554410696029663 
H -1.102279543876648 2.022955894470215 -0.5702981352806091 
H -2.635585308074951 1.1525068283081055 -0.9095882177352905 
H -1.9676052331924438 2.2946462631225586 -2.1040337085723877 
H 0.9792279601097107 -0.4441309869289398 -1.8198931217193604 
H -0.08192263543605804 -1.1673051118850708 -0.47476011514663696 
H -0.8167139887809753 -0.40663138031959534 1.054428219795227 
H 1.9802201986312866 -1.6825469732284546 0.8108267784118652 
H 0.652869701385498 -2.215714454650879 1.8892765045166016 
H 1.8746498823165894 0.31265029311180115 2.110872983932495 
