13

N -0.43793436884880066 0.17612282931804657 1.5105464458465576 
C -0.991926908493042 -1.0272780656814575 1.5328547954559326 
O -0.791628360748291 -1.8349084854125977 0.5730006694793701 
C -0.2733478546142578 -0.11903299391269684 -0.6367606520652771 
C 0.24976563453674316 1.2211123704910278 -1.0741618871688843 
C 1.1832796335220337 0.006369260139763355 -1.0066852569580078 
H -0.12695834040641785 0.531890869140625 2.422562837600708 
H -1.5628619194030762 -1.3484079837799072 2.4337239265441895 
H -0.9815889596939087 -0.6546871066093445 -1.2510371208190918 
H -0.06314346939325333 1.5614476203918457 -2.0710325241088867 
H 0.38594943284988403 1.9900249242782593 -0.31981638073921204 
H 1.5004647970199585 -0.5004943609237671 -1.9223637580871582 
H 1.9099305868148804 -0.0021586089860647917 -0.19083118438720703 
