17

O 2.7144250869750977 -0.010521934367716312 -0.9853673577308655 
C 1.9986188411712646 -0.8193756937980652 -0.08206650614738464 
C 0.4485621154308319 -0.5885997414588928 -0.32178279757499695 
C -0.24160625040531158 -1.4013268947601318 0.666556715965271 
C -2.1106579303741455 0.34911519289016724 -0.06270890682935715 
C -0.956174373626709 1.3000974655151367 0.23610235750675201 
O 0.2967683672904968 0.865232527256012 -0.29936686158180237 
H 2.3377928733825684 0.8879286646842957 -0.8839827179908752 
H 2.2286720275878906 -0.5763447284698486 0.9683955907821655 
H 2.25875186920166 -1.8608893156051636 -0.28809911012649536 
H 0.2548440992832184 -0.9110889434814453 -1.3570903539657593 
H -0.29508745670318604 -0.8000893592834473 1.6039118766784668 
H -1.91434907913208 -0.7018073201179504 0.29964959621429443 
H -3.029750108718872 0.6760905385017395 0.44191089272499084 
H -2.290419101715088 0.2552380859851837 -1.1412756443023682 
H -0.8781094551086426 1.4612810611724854 1.3247443437576294 
H -1.1471621990203857 2.277843475341797 -0.2288200557231903 
