16

C -1.8344007730484009 -1.3723630905151367 0.21700519323349 
C -0.40353500843048096 -0.9316006898880005 -0.17834174633026123 
C -0.38522809743881226 0.55441814661026 -0.002573918318375945 
C 1.8177679777145386 1.087996482849121 -1.0408521890640259 
C -0.042591482400894165 0.9986535310745239 1.3384929895401 
O 0.8317021131515503 0.5000386238098145 2.058640956878662 
H -1.941805362701416 -2.4533681869506836 0.06878525763750076 
H -2.578138589859009 -0.8770990967750549 -0.42868363857269287 
H -2.0487585067749023 -1.1243360042572021 1.2606391906738281 
H -0.20315226912498474 -1.2495694160461426 -1.21467125415802 
H 0.30053481459617615 -1.4515106678009033 0.49390894174575806 
H 0.6581022143363953 1.0927321910858154 -0.9865333437919617 
H 2.0230629444122314 0.8378042578697205 -2.0913243293762207 
H 2.136608600616455 2.1018905639648438 -0.784593939781189 
H 2.2564446926116943 0.3601242005825043 -0.3519541919231415 
H -0.5866131782531738 1.9261887073516846 1.6420562267303467 
