11

C 0.006189137231558561 -2.298675537109375 0.29210859537124634 
C 0.13008378446102142 -0.9034145474433899 -0.15294088423252106 
C 0.21977151930332184 0.26018592715263367 -0.49755778908729553 
C 0.16311395168304443 1.6971226930618286 -0.6400911211967468 
C -1.082329273223877 2.309561252593994 0.7045685052871704 
N -0.01523805782198906 2.658513069152832 1.1032994985580444 
H -1.046497106552124 -2.5990021228790283 0.36223360896110535 
H 0.4496917426586151 -2.4193665981292725 1.3006058931350708 
H 0.532826840877533 -2.9682111740112305 -0.3949878513813019 
H 1.1401454210281372 2.185685157775879 -0.65497225522995 
H -0.4977577328681946 2.077601671218872 -1.4222662448883057 
