11

N 1.7199574708938599 1.1550285816192627 0.8148380517959595 
C 0.7302437424659729 0.44354379177093506 0.14155107736587524 
N -0.2587490677833557 1.1274076700210571 -0.5196494460105896 
N -1.2272714376449585 0.23707659542560577 -0.7632144689559937 
C -0.6573977470397949 -1.0349149703979492 -0.315251886844635 
O -1.478424310684204 -2.093189239501953 -0.06800229102373123 
N 0.604398787021637 -0.8999801874160767 0.207815483212471 
H 1.3133434057235718 1.7602041959762573 1.570127248764038 
H 2.2955257892608643 1.7081278562545776 0.1844344586133957 
H -0.7260652780532837 -0.7163468599319458 -1.5616673231124878 
H -2.315561056137085 -1.6869577169418335 0.3090192675590515 
