16

C -0.6648242473602295 0.7987606525421143 -0.9303829073905945 
C 0.024530377238988876 -0.18979622423648834 0.03003816492855549 
C -0.4190561771392822 0.0036801632959395647 1.4976993799209595 
C -0.4403606951236725 -1.603458285331726 -0.46000978350639343 
C 1.4758765697479248 0.0869612842798233 -0.06607363373041153 
C 1.8493958711624146 1.3154321908950806 -0.2718132436275482 
H 0.8054540753364563 1.895430326461792 -0.433747261762619 
H -1.7496250867843628 0.6511030793190002 -1.052491545677185 
H -0.17636390030384064 0.959264874458313 -1.892983317375183 
H 0.14542831480503082 -0.6785470843315125 2.149074077606201 
H -0.22387662529945374 1.0352108478546143 1.8107922077178955 
H -1.492706298828125 -0.20872676372528076 1.6069953441619873 
H -1.5352699756622314 -1.6689528226852417 -0.44492292404174805 
H -0.08179124444723129 -1.8111923933029175 -1.47538423538208 
H -0.04180683568120003 -2.367861032485962 0.21881325542926788 
H 2.773369789123535 1.8797342777252197 -0.34990671277046204 
