13

N 1.3321672677993774 -0.38128992915153503 -0.38671359419822693 
C 0.8002585768699646 1.0624898672103882 -0.2888835072517395 
O 1.5388684272766113 1.9591337442398071 -0.7510601282119751 
C -0.4656895101070404 1.1121731996536255 0.25406891107559204 
C -1.3724051713943481 -0.08417828381061554 -0.02024601399898529 
C -0.4835393726825714 -1.1512118577957153 0.42827919125556946 
H 1.6594926118850708 -0.4931561052799225 -1.3574949502944946 
H 2.166980743408203 -0.4318796694278717 0.2108660489320755 
H -0.7070309519767761 1.8144421577453613 1.0703537464141846 
H -2.2838330268859863 -0.017446381971240044 0.6005261540412903 
H -1.6783618927001953 -0.16012386977672577 -1.0744502544403076 
H -0.20132660865783691 -1.1819957494735718 1.4761292934417725 
H -0.305581271648407 -2.04695725440979 -0.16137491166591644 
