13

C -1.454416275024414 0.4926939010620117 0.8627808690071106 
N -0.6095626354217529 -0.04641013965010643 1.9152510166168213 
C -0.5572448372840881 -0.6366569995880127 0.5674176812171936 
C 0.6648788452148438 -0.47431567311286926 -0.29426151514053345 
C 0.611093282699585 0.3052727282047272 -1.5478249788284302 
O 1.169424295425415 0.882032573223114 -0.40067362785339355 
H -1.1929501295089722 1.469584345817566 0.4347190260887146 
H -2.528426170349121 0.3050038814544678 0.9754224419593811 
H 0.1929255574941635 0.5892675518989563 2.0364010334014893 
H -1.0000606775283813 -1.6397345066070557 0.48206788301467896 
H 1.4704453945159912 -1.2113690376281738 -0.17471596598625183 
H 2.061537981033325 -0.283197283744812 -2.292325735092163 
H 1.1723555326461792 0.2478283792734146 -2.564258098602295 
