16

C -0.7113111019134521 -1.753949761390686 0.18394781649112701 
C -0.4870048761367798 -0.4137818217277527 -0.49106577038764954 
C 0.059924252331256866 -0.484968900680542 -1.904733419418335 
C 0.813201904296875 1.5402717590332031 1.2432550191879272 
O 1.6001945734024048 2.2914111614227295 2.026707649230957 
C -1.1934789419174194 0.6943018436431885 -0.09419561922550201 
N -1.5776053667068481 1.743057370185852 0.3695097267627716 
H -1.1461429595947266 -1.6482447385787964 1.1863133907318115 
H 0.2406110018491745 -2.3090662956237793 0.23695330321788788 
H -1.4217078685760498 -2.374610185623169 -0.3881017565727234 
H 1.031624436378479 -0.9992533326148987 -1.908893346786499 
H -0.6076267957687378 -1.0568948984146118 -2.568325996398926 
H 0.1717493087053299 0.5106735825538635 -2.3590054512023926 
H 0.8496248126029968 1.7830865383148193 0.17629283666610718 
H 0.18113866448402405 0.7982616424560547 1.7438348531723022 
H 2.1968090534210205 1.679705262184143 2.547506332397461 
