12

N 1.2975351810455322 -0.457993745803833 0.9209531545639038 
C 0.9883134961128235 -0.30588603019714355 -0.4207970201969147 
C -0.20137012004852295 -0.9845990538597107 0.36371493339538574 
C -1.086754322052002 0.24152038991451263 -0.03058159165084362 
N -0.5253721475601196 1.5056977272033691 0.38777080178260803 
C 0.036859530955553055 0.8603663444519043 -0.830372154712677 
H 0.2478155493736267 -0.8785123825073242 1.5023006200790405 
H 1.577691674232483 -0.846127986907959 -1.1733511686325073 
H -0.36619120836257935 -2.0447983741760254 0.16487033665180206 
H -2.1442959308624268 0.15089939534664154 -0.2649911344051361 
H 0.15222211182117462 1.3570494651794434 1.1560899019241333 
H 0.023546025156974792 1.4023840427398682 -1.7756067514419556 
