12

C 1.0738441944122314 0.7033212184906006 2.3285558223724365 
C 0.8900431990623474 0.10273421555757523 1.2804017066955566 
C 0.7102299332618713 -0.670766294002533 0.07625337690114975 
C 0.20626923441886902 0.01613260619342327 -1.085585355758667 
C -1.2028127908706665 0.4729030430316925 -0.9259012341499329 
O -1.5938055515289307 -0.8938997387886047 -0.8631949424743652 
H 1.434049129486084 1.1262950897216797 3.2488138675689697 
H -0.5440372228622437 -1.236365556716919 -0.054503556340932846 
H 1.4087040424346924 -1.4942679405212402 -0.0869017019867897 
H 0.6336491107940674 -0.15013982355594635 -2.079765558242798 
H -1.618619441986084 0.961216926574707 -1.8178895711898804 
H -1.397513508796692 1.0628361701965332 -0.02028254047036171 
