12

C -1.4304418563842773 -0.02036985754966736 0.3777887523174286 
C 0.07261794060468674 -0.020122822374105453 0.5706877112388611 
C 1.4916142225265503 1.1463069915771484 -0.7400362491607666 
O 2.0016558170318604 -0.1799546331167221 -0.6546652913093567 
C 0.9110962748527527 -0.9346679449081421 -0.2837451696395874 
O 0.6970386505126953 -2.0924174785614014 -0.5966706275939941 
H -1.6856101751327515 0.05505795776844025 -0.6890307664871216 
H -1.9080477952957153 0.8196086883544922 0.9074222445487976 
H -1.8638375997543335 -0.9569644927978516 0.7611954808235168 
H 0.3709292709827423 -0.06583033502101898 1.6323072910308838 
H 0.5615732669830322 1.1011453866958618 0.31602269411087036 
H 0.7814118266105652 1.1482086181640625 -1.6012760400772095 
