15

C -0.12750419974327087 1.44145667552948 0.35858312249183655 
O -0.8818730711936951 0.5536295771598816 1.2767441272735596 
C -0.7875754833221436 -0.7848765850067139 0.8211303949356079 
C -0.9366912245750427 -0.8196611404418945 -0.6583854556083679 
C 0.7201904654502869 0.663840651512146 -0.6119330525398254 
C 1.7299296855926514 -0.18069390952587128 -0.20513522624969482 
O 0.07275709509849548 -1.5289716720581055 1.4365448951721191 
H -0.8583725690841675 2.0769472122192383 -0.1613522469997406 
H 0.5202968120574951 2.0853374004364014 0.9723005294799805 
H -1.8818690776824951 -1.2829082012176514 0.7546114921569824 
H -1.694758415222168 -0.17621922492980957 -1.1063302755355835 
H -0.6814225912094116 -1.7470635175704956 -1.174599051475525 
H 0.6177226305007935 0.8734471797943115 -1.683991551399231 
H 2.0026004314422607 -0.252173513174057 0.8489148020744324 
H 2.1865696907043457 -0.922090470790863 -0.8671030402183533 
