17

C -0.4573640525341034 1.615863561630249 -0.8885129690170288 
C -0.4816799759864807 0.21382075548171997 -1.4548219442367554 
C -0.6724117398262024 -0.8668786287307739 -0.4455554783344269 
C -0.8964675068855286 -0.5576905608177185 1.0700823068618774 
C 0.48939621448516846 -0.22299230098724365 1.566703200340271 
C 1.4207857847213745 -0.3308798670768738 0.5942580699920654 
C 0.8577799797058105 -0.8903518319129944 -0.6654065847396851 
H -1.5113879442214966 1.923182725906372 -0.779087245464325 
H -0.004470238462090492 2.3061680793762207 -1.6315991878509521 
H 0.023574672639369965 1.7846468687057495 0.08847495168447495 
H 0.8961467742919922 -0.1847013384103775 -1.6703441143035889 
H -1.1923134326934814 -1.7611817121505737 -0.7933121919631958 
H -1.6146183013916016 0.2579870820045471 1.2350102663040161 
H -1.315895915031433 -1.4325600862503052 1.5818092823028564 
H 0.6843622922897339 0.02839576080441475 2.6106951236724854 
H 2.4779274463653564 -0.07795658707618713 0.6581660509109497 
H 1.2966359853744507 -1.804871916770935 -1.0765588283538818 
