14

C -1.034095287322998 0.460216224193573 -1.38518488407135 
C -0.2672032415866852 0.1691085249185562 -0.12287193536758423 
C 1.095473289489746 -0.5028827786445618 -0.2530204653739929 
O 1.4443111419677734 -1.2583811283111572 0.9072349667549133 
C -0.6583268046379089 0.7911761403083801 1.163617730140686 
O -1.132127285003662 -0.48750215768814087 0.9399595856666565 
H -1.8576180934906006 1.1698436737060547 -1.194689154624939 
H -1.4756641387939453 -0.45930832624435425 -1.8093465566635132 
H -0.3814068138599396 0.8869770169258118 -2.151510238647461 
H 1.8876988887786865 0.2544747591018677 -0.37062978744506836 
H 1.1057705879211426 -1.1462286710739136 -1.1441096067428589 
H 0.6262797117233276 -1.5772066116333008 1.2744625806808472 
H -0.08158157020807266 1.226736307144165 2.088562488555908 
H 0.7284898161888123 0.4729772210121155 2.057525396347046 
