9

O -2.4986507892608643 -0.4916670620441437 -0.1817203015089035 
C -1.6505141258239746 0.5120081901550293 -0.01316685788333416 
C -0.2170548290014267 0.16041970252990723 0.0010336790001019835 
N 0.8051045536994934 0.9727221131324768 0.13401108980178833 
C 1.8606563806533813 0.10226240754127502 0.09149082750082016 
N 1.5377507209777832 -1.1755149364471436 -0.05298226699233055 
O 0.14910288155078888 -1.1523443460464478 -0.11630954593420029 
H -2.9082272052764893 0.6195345520973206 -0.04004768282175064 
H 2.8944594860076904 0.41547325253486633 0.1725260615348816 
