16

C 0.9508495330810547 -0.7834399938583374 1.0111652612686157 
C -0.10903174430131912 -0.05809800326824188 0.23714491724967957 
C -0.959888219833374 -0.7126944661140442 -0.6723935604095459 
O -1.911083459854126 -0.4336119294166565 1.1151705980300903 
C 0.10264944285154343 1.3886712789535522 -0.13168367743492126 
C 0.6452460289001465 0.8508897423744202 -1.440488576889038 
H 1.9394117593765259 -0.608073353767395 0.5807380080223083 
H 0.7525039911270142 -1.8624556064605713 1.0509357452392578 
H 0.963065505027771 -0.4173876941204071 2.052877902984619 
H -1.6797285079956055 -0.1385919749736786 -1.2497901916503906 
H -0.9391131401062012 -1.7897027730941772 -0.8202937841415405 
H -1.5651319026947021 -1.0062447786331177 1.8167681694030762 
H -0.8243159055709839 1.9640253782272339 -0.2191428244113922 
H 0.8275222778320312 1.9059514999389648 0.5076016783714294 
H 0.08833876997232437 1.055424690246582 -2.3515889644622803 
H 1.718705654144287 0.6453381776809692 -1.48702073097229 
