19

C -0.9999688267707825 -1.6948846578598022 1.587046504020691 
C -1.6812262535095215 0.31959226727485657 0.18582740426063538 
C -0.5211564898490906 0.02226795256137848 -0.6217272877693176 
O 0.1343468278646469 -1.3173890113830566 -0.02879822812974453 
C 0.6166520118713379 1.0612232685089111 -0.5528672933578491 
C 1.783689260482788 0.7749711871147156 -1.4986902475357056 
O 1.1522202491760254 1.0459415912628174 0.7918304204940796 
H -0.28327417373657227 -2.509843111038208 1.7251933813095093 
H -1.987916111946106 -1.9957354068756104 1.2592498064041138 
H -0.9569692611694336 -0.9033867120742798 2.3385188579559326 
H -2.669182538986206 0.04525623843073845 -0.200087308883667 
H -1.6777423620224 1.1626616716384888 0.8930381536483765 
H -0.7352585196495056 -0.2964631915092468 -1.6440725326538086 
H 1.0003840923309326 -1.0410810708999634 0.40673166513442993 
H 0.20255844295024872 2.0570974349975586 -0.7934542298316956 
H 1.4396412372589111 0.7903876900672913 -2.5467782020568848 
H 2.2301900386810303 -0.20202115178108215 -1.3030508756637573 
H 2.5515189170837402 1.5511248111724854 -1.391380786895752 
H 0.40149304270744324 1.1302798986434937 1.393471121788025 
