13

N -1.3441156148910522 -0.854920506477356 -0.7076197266578674 
C -0.8316895961761475 0.3709745407104492 -1.120512843132019 
O -0.8820406794548035 0.7457807064056396 -2.2934200763702393 
C -0.25999945402145386 1.2123627662658691 -0.021244511008262634 
C 1.651254415512085 -0.17082789540290833 0.39622578024864197 
O 1.1135284900665283 -1.2531213760375977 1.0185420513153076 
H -0.9139153361320496 -1.2922693490982056 0.10507816076278687 
H -1.5355145931243896 -1.4945785999298096 -1.475067138671875 
H -0.8120646476745605 1.1665617227554321 0.9257872104644775 
H -0.04876520112156868 2.2303895950317383 -0.35755062103271484 
H 1.695246696472168 -0.43125736713409424 -0.6765522956848145 
H 0.9911713600158691 0.8926089406013489 0.4769785702228546 
H 1.1231281757354736 -1.076458215713501 1.9814565181732178 
