10

O 1.4799437522888184 -1.1974403858184814 -0.1271226406097412 
C 0.10693520307540894 -1.0615918636322021 -0.2907659709453583 
C -0.7369307279586792 -0.04078473150730133 0.4334295094013214 
O 0.5531018376350403 1.1156883239746094 0.7988423109054565 
C -0.5056124925613403 0.061770785599946976 -1.1572527885437012 
C -0.1621294468641281 1.244767665863037 -0.3607834279537201 
H 1.7703485488891602 -0.3668285608291626 0.33260297775268555 
H -0.4001947045326233 -2.0301220417022705 -0.3462081849575043 
H -1.4531792402267456 0.07289326190948486 1.2443681955337524 
H -0.6522824764251709 2.2016475200653076 -0.5271100997924805 
