13

O -1.2242178916931152 -1.6722650527954102 1.270313024520874 
C -0.560149610042572 -0.5859695672988892 1.206294298171997 
C 0.7852861881256104 -0.7811309099197388 0.12292753159999847 
C 1.2615370750427246 0.5494788885116577 -0.2256014049053192 
C 0.06488920003175735 1.2848800420761108 -0.40821656584739685 
C -1.046905755996704 0.3527884781360626 -0.045090753585100174 
C -0.3400469124317169 -0.6417781114578247 -0.9037476778030396 
H -0.284043550491333 -0.04737542197108269 2.14025616645813 
H 1.4279096126556396 -1.6513618230819702 0.23910047113895416 
H 2.278627395629883 0.9058688282966614 -0.376159131526947 
H -0.0414593443274498 2.27644419670105 -0.8425278067588806 
H -2.0847673416137695 0.661613941192627 -0.18219870328903198 
H -0.2404038906097412 -0.6435415148735046 -2.0001063346862793 
