16

C -2.4935944080352783 -0.3613368272781372 0.04492953419685364 
C -1.0940239429473877 0.1765991747379303 0.09680277109146118 
C -0.6143735647201538 1.4545437097549438 0.3512874245643616 
C 0.8334604501724243 1.5020331144332886 0.3469879925251007 
C 1.1569719314575195 0.1452311873435974 -0.08769441395998001 
C 2.4940497875213623 -0.5465990900993347 -0.0012493508402258158 
N -0.01874713972210884 -0.6322394609451294 -0.1760941445827484 
H -2.639688014984131 -1.1787307262420654 0.7682837247848511 
H -3.213679075241089 0.4311087429523468 0.2800230085849762 
H -2.7385127544403076 -0.757465124130249 -0.9529941082000732 
H -1.268803358078003 2.2992372512817383 0.5613734722137451 
H 1.216301679611206 1.0456273555755615 -0.9389904141426086 
H 2.631920576095581 -1.298403263092041 -0.7926493287086487 
H 3.2876217365264893 0.2049216777086258 -0.08074627816677094 
H 2.5963807106018066 -1.0448691844940186 0.9729313254356384 
H -0.08378365635871887 -1.6098796129226685 -0.4466122090816498 
