13

O -0.5874708294868469 -1.3003565073013306 -2.298121213912964 
C -0.1257162243127823 -0.8166200518608093 -1.2591924667358398 
C 1.154044508934021 -0.9219103455543518 -0.6242830157279968 
C 0.44315406680107117 1.111852765083313 0.7386233806610107 
C -0.7754282355308533 0.3731105327606201 0.8243185877799988 
N -1.1903676986694336 -0.10295237600803375 -0.38826784491539 
H 2.025618553161621 -1.086334466934204 -1.2656874656677246 
H 1.2164316177368164 -1.3038033246994019 0.39552852511405945 
H 0.6962581276893616 1.6325962543487549 -0.18066231906414032 
H 1.117210865020752 1.205737590789795 1.5898406505584717 
H -1.0911481380462646 -0.021507173776626587 1.7949151992797852 
H -0.7524254322052002 1.708371877670288 1.1000111103057861 
H -2.1301612854003906 -0.4781845808029175 -0.4270227551460266 
