10

O -0.9428136944770813 -0.5489123463630676 -1.9660799503326416 
C -0.2193015068769455 -0.30690518021583557 -0.9826604723930359 
C -0.32023146748542786 0.9457069635391235 0.07363221049308777 
N 0.4151255786418915 0.11242074519395828 1.0263408422470093 
C 0.3730751872062683 -1.041273593902588 0.26983436942100525 
H -1.3735969066619873 1.1403530836105347 0.28730612993240356 
H 0.21545210480690002 1.858817458152771 -0.2144099771976471 
H 0.21821287274360657 0.1380128115415573 2.0263564586639404 
H 0.9488876461982727 -0.3021326959133148 -1.2223589420318604 
H 0.6851902604103088 -1.9960869550704956 0.7020394802093506 
