14

O 1.8637768030166626 0.9780769348144531 0.5805931687355042 
C 1.656785488128662 -0.25817441940307617 -0.09233864396810532 
C 0.26138386130332947 -0.8514661192893982 0.15855127573013306 
C -0.8465756773948669 -0.07379885762929916 -0.5188210010528564 
C -2.215893507003784 0.0066032689064741135 0.07503362745046616 
O -0.9838443994522095 1.3403289318084717 -0.08271053433418274 
H 1.0991154909133911 1.5447628498077393 0.3652512729167938 
H 1.8209383487701416 -0.16416411101818085 -1.184777855873108 
H 2.423875331878662 -0.9426428079605103 0.29371392726898193 
H 0.22067323327064514 -1.8832874298095703 -0.22897253930568695 
H 0.06166653335094452 -0.8979629874229431 1.2382978200912476 
H -0.7494733929634094 -0.03242504969239235 -1.610521674156189 
H -1.5313191413879395 1.1240605115890503 0.8284689784049988 
H -2.948215961456299 0.24985434114933014 -0.7192417979240417 
