12

O 2.124640703201294 -1.2214497327804565 0.1747453361749649 
C 2.1402344703674316 -0.030825287103652954 -0.04046360403299332 
O 1.0696741342544556 0.8121961355209351 0.0773642435669899 
C -0.026227522641420364 0.40155330300331116 0.8841120600700378 
C -1.1094352006912231 -0.6628909111022949 -0.30155137181282043 
C -1.2922035455703735 0.7734480500221252 0.12212902307510376 
H 3.000606060028076 0.5502831339836121 -0.411714643239975 
H -0.21139459311962128 -0.9385244846343994 0.5799400806427002 
H -0.6616160273551941 -0.8310686349868774 -1.2804882526397705 
H -1.870670199394226 -1.3793355226516724 0.015668213367462158 
H -1.1819335222244263 1.5151771306991577 -0.6712278723716736 
H -2.158284902572632 0.959702730178833 0.7605277895927429 
