10

C -0.3828571140766144 0.011941221542656422 1.312484860420227 
C 0.3633631467819214 0.1700640767812729 0.014253971166908741 
C -0.21999888122081757 0.05502705276012421 -1.2585963010787964 
O -1.3274472951889038 -0.13916829228401184 -1.718750238418579 
H -0.40249305963516235 0.955187201499939 1.8704973459243774 
H 0.09814408421516418 -0.7396448850631714 1.947583794593811 
H -1.4082739353179932 -0.30552199482917786 1.116060495376587 
H 1.3679943084716797 0.5955392718315125 0.08785031735897064 
H 1.1066230535507202 -0.6260702610015869 -1.3261736631393433 
H 0.804945707321167 0.02264668233692646 -2.045210838317871 
