16

C 1.7062817811965942 1.2622839212417603 -0.28748857975006104 
C 0.3238964378833771 1.7719610929489136 -0.025494204834103584 
N 1.0625852346420288 -0.025281066074967384 -0.6324992179870605 
C 0.9567161798477173 -1.027956485748291 0.4480000138282776 
C -0.3256833255290985 -0.4089561998844147 0.11767598986625671 
C -1.610437273979187 -0.19337259232997894 0.843360424041748 
C -1.5600494146347046 -0.9467098116874695 -0.48964059352874756 
H 2.365117073059082 1.2055448293685913 0.5918987393379211 
H 2.2637321949005127 1.600648283958435 -1.1729464530944824 
H -0.10291564464569092 1.955040693283081 -1.040574312210083 
H 1.4042648077011108 -0.7820531725883484 1.4174100160598755 
H 1.1672500371932983 -2.0400302410125732 0.08818913996219635 
H -2.0578885078430176 0.7962191104888916 0.8513324856758118 
H -1.7422888278961182 -0.7690403461456299 1.7625865936279297 
H -1.7124162912368774 -2.028066396713257 -0.502979576587677 
H -1.9667012691497803 -0.4202595353126526 -1.3539135456085205 
