15

C 0.507665753364563 -1.32989501953125 0.9874476194381714 
O -0.9282575845718384 -0.9834718704223633 0.9754136204719543 
C -0.8236680626869202 -1.0056859254837036 -0.46847978234291077 
C -0.8940214514732361 0.3537188470363617 -1.108458399772644 
C -0.3043974041938782 1.465435266494751 -0.5770703554153442 
C 0.5492879152297974 1.5052567720413208 0.5810571312904358 
C 0.6154678463935852 -1.5579355955123901 -0.45369309186935425 
H 0.7736099362373352 -2.0007057189941406 1.8207398653030396 
H 0.9094831943511963 -0.2389519065618515 1.2423946857452393 
H -1.5739071369171143 -1.6908091306686401 -0.871736466884613 
H -1.4494588375091553 0.42259201407432556 -2.04506516456604 
H -0.649001955986023 2.4376845359802246 -0.9667216539382935 
H 0.21567940711975098 2.1278371810913086 1.4218069314956665 
H 1.6331288814544678 1.55875825881958 0.467720627784729 
H 1.4183895587921143 -1.063827395439148 -1.005355715751648 
