17

C 0.702197253704071 -0.7746808528900146 1.7036950588226318 
C 1.678884506225586 -0.5733060836791992 0.547700822353363 
C 0.21072174608707428 -0.2909025251865387 0.36451268196105957 
C -0.19433777034282684 1.4446617364883423 0.1318792849779129 
C -0.5893034934997559 1.1678566932678223 -1.246343731880188 
C -1.5578041076660156 0.028354164212942123 -1.3165795803070068 
C -0.7159000635147095 -0.9196239113807678 -0.5056254267692566 
H 0.7397016882896423 -0.08890407532453537 2.539402484893799 
H 0.45299798250198364 -1.8013631105422974 1.987069845199585 
H 2.072089910507202 -1.4581773281097412 0.03772376477718353 
H 2.3727874755859375 0.26291465759277344 0.6153390407562256 
H 0.6744361519813538 2.098237991333008 0.2606571912765503 
H -1.0300458669662476 1.6486139297485352 0.7995375394821167 
H 0.1552083045244217 1.2940208911895752 -2.038130760192871 
H -2.540320873260498 0.2861867845058441 -0.8687552809715271 
H -1.7370036840438843 -0.3224721848964691 -2.3465425968170166 
H -0.6943086981773376 -2.0014164447784424 -0.6655406951904297 
