19

C -1.0690996646881104 1.4028494358062744 1.3167593479156494 
C 0.17668139934539795 1.0730332136154175 0.48486971855163574 
C 0.1890590339899063 -0.33464422821998596 -0.05857317894697189 
C -1.0818047523498535 -0.1739134043455124 -1.7094515562057495 
C 0.18570652604103088 -1.6116350889205933 0.6659178733825684 
C 1.3105459213256836 -1.3025330305099487 -0.2865731716156006 
O 2.538102149963379 -0.9361315369606018 0.3479756712913513 
H -0.986544132232666 2.4114081859588623 1.7511024475097656 
H -1.1990580558776855 0.6900940537452698 2.1382994651794434 
H -1.9863319396972656 1.3864872455596924 0.710167407989502 
H 0.32530415058135986 1.7975683212280273 -0.3280777931213379 
H 1.094339370727539 1.132505178451538 1.0959279537200928 
H -0.4744478762149811 0.555733859539032 -2.248234510421753 
H -2.048740863800049 0.22623945772647858 -1.392881155014038 
H -1.140100121498108 -1.1370397806167603 -2.237323522567749 
H 0.34688928723335266 -1.5892175436019897 1.754520058631897 
H -0.7738198637962341 -0.9748230576515198 -0.40922650694847107 
H 1.3997008800506592 -1.8365180492401123 -1.2342441082000732 
H 3.1936187744140625 -0.779462993144989 -0.36095482110977173 
