14

O -1.0114027261734009 -0.6632078886032104 1.3941168785095215 
C -1.103666067123413 -0.10563279688358307 0.08705950528383255 
C -0.40105360746383667 1.2381190061569214 -0.011625556275248528 
O 1.5049266815185547 0.8262184262275696 1.0862516164779663 
C 1.7319667339324951 -0.06538613140583038 0.21488669514656067 
N 1.0404696464538574 -0.2725786864757538 -0.8850578665733337 
C -0.2915436029434204 -0.8792880177497864 -0.9591208696365356 
H -0.15398932993412018 -0.37007051706314087 1.7625023126602173 
H -2.187894821166992 -0.03709767758846283 -0.11932133883237839 
H -0.3274834454059601 1.6949635744094849 -0.9965807199478149 
H -0.4893321990966797 1.9329737424850464 0.8202854990959167 
H 2.6537411212921143 -0.6606435179710388 0.36823955178260803 
H -0.685812771320343 -0.6963443160057068 -1.968885898590088 
H -0.2739204466342926 -1.9684741497039795 -0.7909777164459229 
