15

C 0.15636074542999268 -0.6469836831092834 2.0373570919036865 
O -0.6289046406745911 0.44915762543678284 1.5456205606460571 
C -1.1082900762557983 0.2916938364505768 0.22613461315631866 
C -0.07342363893985748 -0.10376536846160889 -0.8155723214149475 
C -0.21813665330410004 0.45575904846191406 -2.194549560546875 
N 1.0532417297363281 0.8701667189598083 -0.8895846605300903 
H 0.2644803822040558 -0.4649786353111267 3.1134238243103027 
H -0.32523036003112793 -1.6244429349899292 1.871517300605774 
H 1.153825283050537 -0.6521331071853638 1.551396369934082 
H -1.5434845685958862 1.2590947151184082 -0.03946106135845184 
H -1.9249565601348877 -0.45699694752693176 0.2038605660200119 
H 0.28800004720687866 -1.1359225511550903 -0.7263674736022949 
H 0.3557458817958832 -0.15558099746704102 -2.9090847969055176 
H 0.6485192775726318 1.5238136053085327 -1.7643529176712036 
H 1.902253270149231 0.39111873507499695 -1.21033775806427 
