15

C -2.1309492588043213 0.46442392468452454 -0.3933711349964142 
N -0.6783562898635864 0.37234798073768616 -0.4803437888622284 
C 0.023376043885946274 -0.5413447618484497 0.14724570512771606 
C 1.4105420112609863 -0.8839445114135742 -0.31375551223754883 
O 1.9462075233459473 -1.9298436641693115 0.4824707508087158 
C 0.9133193492889404 1.5879513025283813 1.3457248210906982 
N 1.1703073978424072 2.2396039962768555 0.3734470009803772 
H -2.497889757156372 0.960034966468811 -1.2986088991165161 
H -2.4031624794006348 1.028198480606079 0.5090811252593994 
H -2.582491397857666 -0.5286434888839722 -0.314413845539093 
H -0.1528339982032776 1.3174692392349243 -0.4864991307258606 
H -0.515583336353302 -1.2750600576400757 0.7479188442230225 
H 2.0531139373779297 0.010026526637375355 -0.34331774711608887 
H 1.343221664428711 -1.2794793844223022 -1.350606918334961 
H 2.101179361343384 -1.541740894317627 1.3750287294387817 
