16

C 0.0841033011674881 -1.3037045001983643 -0.15652361512184143 
C -1.0129762887954712 -0.5118870139122009 0.4892232418060303 
C -0.6512472033500671 0.7645872831344604 1.0941861867904663 
C -0.004793521482497454 1.5034822225570679 -0.1069360226392746 
C 1.028459906578064 0.9179758429527283 -0.7271401286125183 
C 1.4039548635482788 -0.4922134280204773 -0.2553558945655823 
H -0.23019202053546906 -1.651241660118103 -1.1526039838790894 
H 0.26167240738868713 -2.2213449478149414 0.43727853894233704 
H -2.0083236694335938 -0.9442885518074036 0.5852957367897034 
H -1.8257622718811035 0.6175777912139893 -0.9057783484458923 
H 0.17173247039318085 0.6621727347373962 1.8179128170013428 
H -1.4854967594146729 1.2970895767211914 1.560144066810608 
H -1.3494336605072021 1.3234989643096924 -0.9525877833366394 
H 1.4236040115356445 1.2869617938995361 -1.6738609075546265 
H 1.8828612565994263 -0.4575350284576416 0.7358094453811646 
H 2.113102912902832 -0.9835713505744934 -0.9344943761825562 
