14

O 0.27561500668525696 -1.4389859437942505 -2.2188282012939453 
C 0.07288318127393723 -0.9942382574081421 -0.9447827935218811 
C 0.14877021312713623 0.40961989760398865 -0.5054382681846619 
C -0.48324981331825256 0.8278263211250305 0.7773929834365845 
C 0.8731768131256104 0.7733954787254333 1.4495573043823242 
O 1.486036777496338 0.6598790884017944 0.1288365125656128 
H -0.5961495041847229 -1.2540245056152344 -2.6858839988708496 
H 0.2450251430273056 -1.7731066942214966 -0.20290721952915192 
H -1.7006921768188477 -1.1632730960845947 0.1307300329208374 
H 0.035767655819654465 1.065626859664917 -1.3996790647506714 
H -1.6641011238098145 -0.5005731582641602 0.6230273246765137 
H -1.0017549991607666 1.7940011024475098 0.7820039391517639 
H 1.2310699224472046 1.6821027994155884 1.9685115814208984 
H 1.0776032209396362 -0.0882495641708374 2.097459077835083 
