14

C 1.395662546157837 0.6472979784011841 0.5069233179092407 
C 0.048055704683065414 0.018367618322372437 0.15420983731746674 
C -1.0153775215148926 -0.5764495134353638 1.0720661878585815 
C -1.20828115940094 0.6651999950408936 0.32835066318511963 
O 0.13534919917583466 0.6611029505729675 -2.023106336593628 
C 0.01121123693883419 -0.4990268051624298 -1.376604437828064 
H 1.4422677755355835 0.8926321268081665 1.5798481702804565 
H 1.5474950075149536 1.5474212169647217 -0.09760713577270508 
H 2.198509693145752 -0.06955935806035995 0.2735536992549896 
H -1.5266735553741455 -1.4862987995147705 0.7386874556541443 
H -0.870360255241394 -0.5049083232879639 2.155735731124878 
H -2.0336074829101562 0.9793543219566345 -0.29970595240592957 
H 0.8300476670265198 -1.2272529602050781 -1.5682470798492432 
H -0.9542993307113647 -1.0478805303573608 -1.4441043138504028 
