15

C 0.5468789339065552 -2.018643379211426 1.3141368627548218 
N 0.12084793299436569 -1.4656505584716797 0.09587477147579193 
C 0.044152915477752686 -0.12582431733608246 0.06292294710874557 
N 0.501556932926178 0.4818381667137146 1.1883963346481323 
C -0.4151109457015991 0.4983571767807007 -1.1941921710968018 
O -0.7352926731109619 -0.19825588166713715 -2.164351463317871 
C -0.4641648232936859 2.0085253715515137 -1.2509170770645142 
H 0.0987849235534668 -2.990999460220337 1.5422229766845703 
H 0.49791187047958374 -0.5845151543617249 1.8782062530517578 
H 1.6294361352920532 -1.9873708486557007 1.4903228282928467 
H -0.2089867740869522 -1.9796905517578125 -0.6986262798309326 
H -0.16649162769317627 1.169034481048584 1.5523295402526855 
H 0.2730734050273895 2.380725383758545 -1.9686455726623535 
H -0.262332946062088 2.4827723503112793 -0.27304691076278687 
H -1.4602633714675903 2.3296966552734375 -1.5746325254440308 
