14

C 0.34196972846984863 -1.222710371017456 -0.42736104130744934 
C -1.0953019857406616 -0.6757946014404297 -0.3040955662727356 
C -0.6518570184707642 0.6695029735565186 0.28679463267326355 
O -0.6063816547393799 0.6425438523292542 1.6829005479812622 
C 0.7575114369392395 1.0081769227981567 1.5275683403015137 
C 0.9298553466796875 0.1879432648420334 -0.47212329506874084 
H 0.5572559237480164 -1.8684439659118652 -1.2886477708816528 
H 0.6485128402709961 -1.7303248643875122 0.49426624178886414 
H -1.5459494590759277 -0.5080371499061584 -1.2921046018600464 
H -1.8001999855041504 -1.2179313898086548 0.33703893423080444 
H -1.0234593152999878 1.6213630437850952 -0.11486125737428665 
H 0.7401431798934937 2.090608596801758 1.1848219633102417 
H 0.7401344180107117 0.6791102886199951 -1.4385509490966797 
H 1.977426528930664 0.33760136365890503 -0.20550721883773804 
