15

C 1.5332417488098145 1.475401520729065 0.7675543427467346 
C 0.679547131061554 0.6563084721565247 -0.13589128851890564 
O -0.22668394446372986 1.009891390800476 -1.0383015871047974 
C -0.46910151839256287 -0.18586568534374237 -0.10082421451807022 
C -1.9517788887023926 -0.3713011145591736 0.24669374525547028 
O -2.0058350563049316 -1.6291272640228271 -0.4699574112892151 
C -0.595360517501831 -1.5722668170928955 -0.6592601537704468 
H 1.550175666809082 2.5175442695617676 0.39203187823295593 
H 1.1314549446105957 1.4780268669128418 1.7964720726013184 
H 2.552011489868164 1.0658961534500122 0.7908120155334473 
H 1.5318611860275269 -0.5975815653800964 -1.1020147800445557 
H -2.137363910675049 -0.5027596950531006 1.3150279521942139 
H -2.594574451446533 0.39201465249061584 -0.20588825643062592 
H -0.10414627939462662 -2.4504880905151367 -0.22985856235027313 
H 1.106552243232727 -1.2856934070587158 -1.36659574508667 
