13

O 2.2491283416748047 0.795890212059021 0.5454615354537964 
C 1.1996592283248901 0.393371045589447 0.08178120106458664 
C 0.5993367433547974 0.7672399282455444 -1.2765717506408691 
O -0.4591017961502075 -0.1986471712589264 -1.5162856578826904 
C -0.5447784066200256 -1.1319130659103394 -0.5210901498794556 
C -1.0939639806747437 -0.212583988904953 1.07572340965271 
C 0.2882465720176697 -0.665418267250061 0.6665484309196472 
H 1.3380424976348877 0.7056246995925903 -2.09023380279541 
H 0.19111059606075287 1.7862638235092163 -1.2616496086120605 
H -1.6947667598724365 -0.9558563232421875 0.13150665163993835 
H -1.5343105792999268 -0.7039185762405396 1.9436155557632446 
H -1.313775897026062 0.850939929485321 0.9501850008964539 
H 0.7751738429069519 -1.4309921264648438 1.2710094451904297 
