14

C -0.12028388679027557 1.708044409751892 -0.3491160571575165 
C -0.21193024516105652 -0.6850488781929016 -0.4143643081188202 
C -1.5557458400726318 -0.8717756271362305 0.2379465401172638 
O 0.7509369850158691 -1.0581848621368408 0.524167537689209 
C 2.0777926445007324 -0.8678067922592163 0.2051611691713333 
O 2.4976859092712402 -0.20237435400485992 -0.7087960839271545 
H -1.1164911985397339 2.034036874771118 -0.6563259363174438 
H 0.024917595088481903 1.6823086738586426 0.7314931750297546 
H 0.7050970792770386 2.167145252227783 -0.8975014090538025 
H -0.004337068181484938 0.43174177408218384 -0.9113713502883911 
H -1.7324066162109375 -1.9582397937774658 0.2956225872039795 
H -2.345494508743286 -0.437218576669693 -0.38593098521232605 
H -1.6355037689208984 -0.4806351065635681 1.266412615776062 
H 2.6812448501586914 -1.394667148590088 0.9642475843429565 
