12

C 1.1236340999603271 0.36325663328170776 0.43143752217292786 
C 0.3455657958984375 -0.9289323687553406 0.2201671451330185 
O -0.8551244139671326 -1.0588841438293457 0.8842492699623108 
C -1.7458794116973877 0.7064774632453918 -0.13149668276309967 
O -0.9266297817230225 0.5399176478385925 -1.175976276397705 
C 0.40844491124153137 0.14614523947238922 -0.8760089874267578 
H 2.2116456031799316 0.35806649923324585 0.36385849118232727 
H 0.7170059084892273 1.0370866060256958 1.182503342628479 
H 0.8441006541252136 -1.8748688697814941 -0.004292216617614031 
H -1.7962545156478882 -0.5659516453742981 0.34672820568084717 
H -1.2417945861816406 1.3066109418869019 0.6583226323127747 
H 0.9754927158355713 0.004545948002487421 -1.7936334609985352 
