10

C 0.11494344472885132 1.0041825771331787 -0.9422668218612671 
C -0.6975455284118652 0.05075369402766228 -0.10522317886352539 
C -0.1551968902349472 -0.8790202140808105 0.8099101185798645 
C 0.496127724647522 -1.3742845058441162 1.817486047744751 
H -0.1331494003534317 2.0516505241394043 -0.6836798787117004 
H -0.0793328508734703 0.8863427042961121 -2.016127109527588 
H 1.1844251155853271 0.8634518980979919 -0.7292638421058655 
H -1.785858392715454 0.10513205081224442 -0.19076423346996307 
H -0.48131394386291504 -1.5391877889633179 -0.06690774857997894 
H 1.5369007587432861 -1.1690208911895752 2.1068363189697266 
