12

N 0.8762931823730469 -0.5347856283187866 1.1790497303009033 
C 0.8480473756790161 -0.7140687108039856 -0.2763630151748657 
C -0.44551414251327515 -0.2143242210149765 -0.8397446870803833 
O -0.5710456371307373 1.761871576309204 0.14265835285186768 
C -1.5151402950286865 0.23760686814785004 -0.019244875758886337 
N -2.4974000453948975 -0.021276678889989853 0.6161591410636902 
H 0.6953061819076538 0.4086276888847351 1.4213613271713257 
H 1.7409565448760986 -0.9563831090927124 1.5480777025222778 
H 0.8717524409294128 -1.7973361015319824 -0.5096051692962646 
H 1.6752049922943115 -0.2599673867225647 -0.8233271241188049 
H -0.5926149487495422 -0.23006367683410645 -1.9194787740707397 
H -1.085845708847046 2.3200995922088623 -0.5195426940917969 
