13

C -2.2213804721832275 -0.13641639053821564 0.31102991104125977 
N -1.1603188514709473 0.8344051837921143 0.4716862738132477 
C -0.5698904991149902 -0.0030444248113781214 -0.5811797380447388 
C 0.7986353635787964 -0.5644142627716064 -0.25025662779808044 
C 1.8244011402130127 0.2975025177001953 0.36511269211769104 
O 1.1291990280151367 -0.7068529725074768 1.1340162754058838 
H -1.258440613746643 -0.9913554787635803 -0.5610275864601135 
H -2.7859699726104736 0.23079289495944977 -0.5852236151695251 
H -0.6617366671562195 0.5766711235046387 1.334896445274353 
H -0.6275782585144043 0.4580475986003876 -1.5713790655136108 
H 1.124599814414978 -1.3938168287277222 -0.8853895664215088 
H 2.881394863128662 0.0927533432841301 0.175922691822052 
H 1.5707073211669922 1.331804633140564 0.6107720136642456 
