14

C 1.1782292127609253 -1.2425000667572021 -0.04984676465392113 
C 0.3072342276573181 -0.012776807881891727 -0.17474639415740967 
C 0.8809890747070312 1.3387439250946045 -0.3734376132488251 
O 0.26803332567214966 0.6386775374412537 -1.4629464149475098 
C -1.0176867246627808 -0.08052239567041397 0.5053836107254028 
O -1.2011666297912598 -0.6769363880157471 1.6471513509750366 
N -2.16550350189209 0.41708341240882874 0.1117633581161499 
H 2.160919189453125 -1.0647751092910767 -0.5024130940437317 
H 1.3009508848190308 -1.504366159439087 1.0076675415039062 
H 0.7043601870536804 -2.09194278717041 -0.5605502128601074 
H 0.33417677879333496 2.2118961811065674 -0.006727102678269148 
H 1.9695652723312378 1.4383599758148193 -0.42035362124443054 
H -2.299473285675049 0.8535032868385315 -0.8024318218231201 
H -2.3984341621398926 -0.21292583644390106 1.2884031534194946 
