14

C 0.5643611550331116 1.1288920640945435 -0.18979613482952118 
C -0.6754667162895203 0.38453003764152527 -0.36506935954093933 
O -0.7688339352607727 -0.46871572732925415 -1.3612372875213623 
C -0.4760950207710266 -0.48779430985450745 1.0327794551849365 
C 0.47590529918670654 -1.648396372795105 0.8716950416564941 
O 1.2037862539291382 -2.006397247314453 1.798062801361084 
H 0.43162205815315247 1.4360650777816772 -2.158944845199585 
H 0.6019120216369629 2.0959150791168213 0.3031423091888428 
H 1.4991830587387085 0.6408676505088806 -0.44940200448036194 
H -1.551207184791565 1.029923915863037 -0.15436238050460815 
H -0.022111520171165466 0.7676795721054077 -2.312427043914795 
H -0.20796748995780945 0.10652104765176773 1.9291198253631592 
H -1.4947260618209839 -0.877929151058197 1.1841323375701904 
H 0.41963785886764526 -2.101161479949951 -0.12769320607185364 
