12

C 0.3487693965435028 0.03668789193034172 -1.6356858015060425 
C -0.570433497428894 0.2970719039440155 -0.4913925230503082 
C -1.7142577171325684 0.8590572476387024 -0.15802714228630066 
C -1.0381691455841064 0.7422230839729309 1.1115341186523438 
O -1.0005929470062256 1.0845683813095093 2.270994186401367 
C 0.3951225280761719 -0.5721282958984375 1.0641225576400757 
H 0.05512608587741852 0.6993597745895386 -2.463796854019165 
H 1.4029643535614014 0.24704256653785706 -1.4086989164352417 
H 0.23174792528152466 -1.0127005577087402 -1.964992880821228 
H -0.1736920326948166 -1.2094241380691528 1.7489441633224487 
H 0.9171466827392578 -1.2148449420928955 0.3380569815635681 
H 1.1462681293487549 0.04308702424168587 1.5889421701431274 
