15

O 0.8078562021255493 -0.6030544638633728 -2.6308090686798096 
C 0.8828407526016235 -0.3690788745880127 -1.2160723209381104 
C -0.27595198154449463 0.6487371921539307 -0.8666864037513733 
O -0.061323922127485275 1.088639736175537 0.5189166069030762 
C -0.39861780405044556 0.2109505832195282 1.5271888971328735 
C 0.379640132188797 -0.007287336513400078 2.5922417640686035 
C -1.4935499429702759 -0.12336914986371994 -1.0188449621200562 
H -0.12764930725097656 -0.9136567711830139 -2.738726854324341 
H 1.8550560474395752 0.09139181673526764 -1.008684754371643 
H 0.7596582770347595 -1.2720155715942383 -0.6094861030578613 
H -0.07996269315481186 1.533873200416565 -1.4928884506225586 
H -1.2677901983261108 -0.42501771450042725 1.2932852506637573 
H -0.10748239606618881 -0.21476563811302185 3.555983304977417 
H 1.4600569009780884 -0.03189130127429962 2.5489754676818848 
H -2.332780361175537 0.3865443468093872 -0.45439252257347107 
