13

O -0.585070788860321 1.5269016027450562 -1.5875911712646484 
C -0.93709397315979 0.2728191316127777 -1.2802122831344604 
N -1.1669672727584839 -0.3032149374485016 -0.07278652489185333 
C -0.10363522171974182 -0.2170908898115158 0.9183074831962585 
C 1.1489059925079346 -0.9542896151542664 0.538489818572998 
C 1.0467044115066528 0.5555325150489807 0.3714756369590759 
H -1.5485224723815918 -0.15468980371952057 -2.087648391723633 
H -2.1413094997406006 -0.4200674891471863 0.1896708905696869 
H -0.4545603394508362 -0.21266533434391022 1.9515676498413086 
H 1.150506854057312 -1.5991017818450928 -0.33912062644958496 
H 1.7550708055496216 -1.3623239994049072 1.3523178100585938 
H 1.6468418836593628 1.178689956665039 1.0398576259613037 
H 0.18912973999977112 1.6895006895065308 -0.9943281412124634 
