13

C -0.8086466193199158 1.848299264907837 -0.47464442253112793 
C -0.0038187827449291945 0.6778681874275208 -0.0003659047943074256 
N 1.6089372634887695 -0.9689540863037109 0.8471387028694153 
C 0.5218852162361145 -1.7413601875305176 0.5656629204750061 
C -0.3962044417858124 -0.6521807312965393 -0.27866053581237793 
O -1.362072229385376 -1.1120818853378296 -0.8603585362434387 
H -1.6071780920028687 1.5124200582504272 -1.1424747705459595 
H -1.2533618211746216 2.3804664611816406 0.3813022971153259 
H -0.1655615270137787 2.5645196437835693 -0.9945148825645447 
H 0.8242831230163574 0.8826386332511902 0.6772007346153259 
H 2.16552472114563 -0.8074620962142944 -0.006605940870940685 
H 0.6033469438552856 -2.597844123840332 -0.13011100888252258 
H -0.12713363766670227 -1.9863295555114746 1.4164314270019531 
