14

C -1.3937108516693115 -1.1816961765289307 -0.2949620485305786 
C -0.4374653398990631 -0.04635997489094734 -0.09491509944200516 
N -0.8289256691932678 1.047684907913208 0.48316723108291626 
O -2.1227428913116455 1.2789372205734253 0.9595801830291748 
C 0.9827253222465515 -0.1611080914735794 -0.5191779732704163 
C 2.061742067337036 0.5969117879867554 0.13421402871608734 
O 1.8841633796691895 -0.7957749366760254 0.42590510845184326 
H -2.3842527866363525 -0.9055143594741821 0.0850716233253479 
H -1.4724019765853882 -1.4399373531341553 -1.3617786169052124 
H -1.0338596105575562 -2.0752756595611572 0.2359958440065384 
H -1.0770262479782104 2.0471510887145996 0.9561542868614197 
H 1.130678653717041 -0.5031746029853821 -1.5499484539031982 
H 2.9548397064208984 0.8543350696563721 -0.4434911012649536 
H 1.8105990886688232 1.2848252058029175 0.9460609555244446 
