10

O 2.5984151363372803 0.6243910789489746 0.4015413224697113 
C 1.7902355194091797 -0.28425681591033936 0.3860604763031006 
N 0.40990301966667175 -0.0694219321012497 0.5580214858055115 
C -0.2932067811489105 0.8450117111206055 -0.1601596474647522 
N -1.6637084484100342 0.9688993692398071 0.1673087328672409 
C -1.7721004486083984 -0.3125254511833191 -0.110944002866745 
N -0.5473318099975586 -0.9715126752853394 -0.3256518542766571 
H 2.0247209072113037 -1.362854242324829 0.31877604126930237 
H 0.14497007429599762 1.3808399438858032 -1.0090049505233765 
H -2.7068960666656494 -0.86226487159729 -0.2592775523662567 
