12

O -0.6619901657104492 0.2529750168323517 -1.3783506155014038 
C -0.192866250872612 1.2840852737426758 -0.3365999162197113 
C 0.7730146050453186 0.6186401844024658 0.5962835550308228 
C 0.14853999018669128 -0.7871315479278564 0.7812709808349609 
C -0.4885714650154114 -1.061998724937439 -0.5511080026626587 
O -0.9665462970733643 -2.0410404205322266 -1.0567238330841064 
H -1.645962119102478 0.30208897590637207 -1.508953332901001 
H 0.1868596076965332 2.125208854675293 -0.9216364622116089 
H 0.783470869064331 1.148404598236084 1.5658760070800781 
H 1.810157299041748 0.5407858490943909 0.23752522468566895 
H -0.6258484721183777 -0.8001223802566528 1.565325140953064 
H 0.8797423839569092 -1.5818957090377808 1.0070910453796387 
