14

C 0.5330408215522766 1.6596858501434326 0.6815869212150574 
C -0.3251713812351227 0.43667587637901306 0.650570809841156 
C -1.06298828125 -1.8618930578231812 1.6165295839309692 
N -1.9718900918960571 -1.6535007953643799 0.8753868937492371 
C -0.4660869538784027 -0.39496517181396484 -0.4671902060508728 
O -1.5803617238998413 -1.0664167404174805 -0.6445319652557373 
C 0.6810784935951233 -0.7347193360328674 -1.4046541452407837 
H 0.018416814506053925 2.4468894004821777 1.2545347213745117 
H 0.7434143424034119 2.0463507175445557 -0.3314424753189087 
H 1.4948217868804932 1.4459267854690552 1.167879343032837 
H -0.9295065999031067 0.20184847712516785 1.5272363424301147 
H 1.578144907951355 -0.14671637117862701 -1.203492522239685 
H 0.37236952781677246 -0.5818985104560852 -2.443180561065674 
H 0.9147183299064636 -1.797267198562622 -1.2792328596115112 
