15

O 2.287747621536255 -0.887963056564331 -1.6446583271026611 
C 1.3848035335540771 -0.3483096957206726 -0.9988794326782227 
N 0.2304673194885254 0.2592144012451172 -1.4455070495605469 
C -0.6203128099441528 1.1766027212142944 -0.6680383086204529 
C -1.3547964096069336 0.15589097142219543 0.2330651879310608 
C 0.45110970735549927 -0.40372249484062195 1.2598938941955566 
N 1.3461878299713135 -0.8843360543251038 0.38991981744766235 
H -0.6667726039886475 -0.6578086018562317 -0.5782628059387207 
H -0.0838656798005104 1.9231486320495605 -0.07538224756717682 
H -1.3058931827545166 1.6910829544067383 -1.3519268035888672 
H -1.7056057453155518 0.5410138368606567 1.2057297229766846 
H -2.223243236541748 -0.2766200602054596 -0.27660515904426575 
H 0.17088079452514648 -1.048545241355896 2.096240758895874 
H 0.5709148049354553 0.6536051034927368 1.5009461641311646 
H 1.5183782577514648 -1.8932533264160156 0.35346361994743347 
