10

O 1.3008508682250977 0.4790579676628113 -1.0166434049606323 
C 0.38770565390586853 0.6197736859321594 0.06725871562957764 
C 0.5424680709838867 -0.2725358307361603 1.2459259033203125 
C -0.8606683611869812 -0.27342239022254944 0.004757843445986509 
H 0.8015121817588806 0.5595014095306396 -1.8523321151733398 
H 0.17421987652778625 1.6737799644470215 0.2922140061855316 
H 1.096024751663208 -1.159674048423767 0.909970223903656 
H -0.8113446831703186 -0.848699688911438 1.040555477142334 
H -1.8161871433258057 0.2502737045288086 0.10049264878034592 
H -0.8145808577537537 -1.0280547142028809 -0.792199432849884 
