14

C 1.763318657875061 0.552299439907074 -0.6309040784835815 
C 0.31468331813812256 0.5514180660247803 -0.19978147745132446 
C -0.7366341352462769 0.8415554165840149 -1.0175222158432007 
C -1.9643120765686035 -0.7606260776519775 0.5807392597198486 
C -0.6508836150169373 -0.917844295501709 1.3012206554412842 
O 0.1799345761537552 0.28709837794303894 1.1154934167861938 
H 1.8724545240402222 0.8442291021347046 -1.6832737922668457 
H 2.194849729537964 -0.45183613896369934 -0.5031898021697998 
H 2.334428548812866 1.263748049736023 -0.0010690913768485188 
H -1.7116971015930176 1.1295455694198608 -0.6049681901931763 
H -0.5417897701263428 1.1838170289993286 -2.0340330600738525 
H -2.1907291412353516 -1.8266171216964722 0.2040368765592575 
H 0.038385868072509766 -1.7591537237167358 1.087660551071167 
H -0.9020090103149414 -0.9376338720321655 2.3855910301208496 
