12

C -0.8130588531494141 0.08643671870231628 1.3197057247161865 
C -0.04031479358673096 0.12392634153366089 0.007537027355283499 
C 1.2587740421295166 0.6809870600700378 0.05698547512292862 
C 2.4044764041900635 1.114274263381958 0.1501225233078003 
C -0.5967692732810974 -0.4552944600582123 -1.1861035823822021 
C -1.0412589311599731 -1.3084616661071777 -2.03910493850708 
H -0.895698070526123 1.0914199352264404 1.757591724395752 
H -1.8235148191452026 -0.3169631063938141 1.1695423126220703 
H -0.28541240096092224 -0.5676994323730469 2.038707733154297 
H -0.6925899982452393 0.6590691804885864 -1.4042210578918457 
H 3.4531242847442627 1.2702713012695312 0.34583353996276855 
H -0.9277575016021729 -2.3779659271240234 -2.2165963649749756 
