10

C 1.2132152318954468 0.19018113613128662 -0.6862009763717651 
C 0.17403064668178558 0.5935807228088379 0.3226000666618347 
C -0.9890382885932922 -0.16272158920764923 0.5904092788696289 
C -1.8110300302505493 -1.030014157295227 1.0719608068466187 
H 1.093724250793457 -0.8784962892532349 -0.9211285710334778 
H 1.1277978420257568 0.7649420499801636 -1.6180400848388672 
H 2.230470895767212 0.34465253353118896 -0.2854148745536804 
H 0.27762189507484436 1.5699318647384644 0.799452006816864 
H -1.427830457687378 0.6971678137779236 -0.062079109251499176 
H -1.8889620304107666 -2.089224100112915 0.7884413599967957 
