14

C 0.053538043051958084 -0.6199793815612793 1.9265424013137817 
O 0.41545718908309937 -1.0609930753707886 0.6066070795059204 
C 0.1748398244380951 -0.18407022953033447 -0.40698760747909546 
C 1.418825387954712 0.3194633424282074 -1.0932029485702515 
C -1.167600154876709 0.056047260761260986 -0.8321672081947327 
C -2.2446208000183105 0.015751207247376442 -1.5559239387512207 
H 0.37991324067115784 -1.4187999963760376 2.6014978885650635 
H -1.03502357006073 -0.46559005975723267 1.9907244443893433 
H 0.5862464904785156 0.304122656583786 2.204225540161133 
H -0.7724566459655762 0.9788787961006165 -0.13166899979114532 
H 2.1459262371063232 0.715694785118103 -0.3737744390964508 
H 1.1569253206253052 1.0944684743881226 -1.8216055631637573 
H 1.9048221111297607 -0.5201667547225952 -1.6135798692703247 
H -3.0167925357818604 0.7851729393005371 -1.500686526298523 
