12

N 2.5065460205078125 -1.127822995185852 1.1821306943893433 
C 1.686933159828186 -0.685322105884552 0.47307702898979187 
C 0.6650424003601074 -0.10648506879806519 -0.4129863381385803 
C -0.702958345413208 -0.8435038328170776 -0.3458726406097412 
N -1.5436153411865234 0.014741400256752968 0.5556934475898743 
C -0.9363428950309753 1.2199653387069702 0.7033818364143372 
N 0.2477802038192749 1.2550190687179565 0.031306736171245575 
H 1.068228840827942 -0.06941016018390656 -1.4334017038345337 
H -1.168095350265503 -0.8904291987419128 -1.3387550115585327 
H -0.6314935088157654 -1.856459617614746 0.062246378511190414 
H -2.1485891342163086 1.1129051446914673 0.2863226532936096 
H 0.9493919014930725 1.9603261947631836 0.23483805358409882 
