13

O -1.399466872215271 0.6926789879798889 1.74526047706604 
C -1.6258095502853394 0.707506537437439 0.5488561987876892 
C -0.5564765334129333 0.8648256659507751 -0.525250256061554 
O -0.4737298786640167 -0.33165499567985535 -1.4027411937713623 
C 0.8692175149917603 -0.5035418272018433 -0.9034622311592102 
C 0.9581233859062195 -0.9563538432121277 0.5512577891349792 
C 0.9536352157592773 0.8162347078323364 -0.14768019318580627 
H -2.6478922367095947 0.6238344311714172 0.12715119123458862 
H -0.7529445290565491 1.744645118713379 -1.1562119722366333 
H 1.6005233526229858 -0.8582471609115601 -1.6367919445037842 
H 0.07034697383642197 -1.4832924604415894 0.9228360056877136 
H 1.9132541418075562 -1.43707275390625 0.7876898050308228 
H 1.0912195444107056 0.12043745815753937 1.0890860557556152 
