11

O 0.06457392126321793 -1.6493146419525146 1.9293746948242188 
C 0.10809214413166046 -0.8890848755836487 0.9649694561958313 
C 0.25521138310432434 -1.0367809534072876 -0.4569912254810333 
C 0.1990276575088501 0.3246919810771942 -1.079602599143982 
C -0.20527583360671997 1.2201486825942993 -0.06880305707454681 
N -0.24435339868068695 0.5518386363983154 1.0997322797775269 
H 0.4177856147289276 -1.9676737785339355 -0.9917420148849487 
H -0.7769514918327332 -0.40218842029571533 -1.2357677221298218 
H 0.5330697298049927 0.5764027237892151 -2.0759670734405518 
H -0.2992805540561676 2.305406093597412 -0.09670193493366241 
H -0.05189914256334305 0.9665544629096985 2.0114994049072266 
