10

O 0.22118467092514038 -1.2251718044281006 1.3727954626083374 
C 1.1369521617889404 -0.39958178997039795 0.8378702998161316 
C 0.44433125853538513 0.8852247595787048 0.4953370988368988 
N -0.9030852913856506 1.1122596263885498 0.3166055381298065 
C -1.0503175258636475 0.3911898136138916 -0.7740256786346436 
N 0.15657275915145874 0.15253527462482452 -1.3527652025222778 
H 0.6887422800064087 -2.0626473426818848 1.5663188695907593 
H 1.0866268873214722 1.7674744129180908 0.6224490404129028 
H -2.0139970779418945 0.08625143766403198 -1.199278712272644 
H 0.23691491782665253 -0.721238374710083 -1.8990716934204102 
