11

C -0.8963702917098999 0.824038028717041 0.5634973049163818 
C -0.8346360921859741 -0.3205065429210663 -0.7400282621383667 
C 0.2777595818042755 -1.0579091310501099 -0.2622759938240051 
C 1.5870736837387085 -0.35878095030784607 -0.2461053431034088 
N 1.801455020904541 0.8594576716423035 -0.34527406096458435 
O -1.6586815118789673 -0.11085883527994156 -1.6023766994476318 
H -0.2702775001525879 0.6685555577278137 1.4444483518600464 
H -1.9499610662460327 0.757504403591156 0.8284155130386353 
H -0.6414365768432617 1.739915370941162 0.03679923713207245 
H 0.16066861152648926 -1.9401583671569824 0.3619312644004822 
H 2.4244062900543213 -1.0612573623657227 -0.03903140872716904 
