11

C 1.458822250366211 -0.47900718450546265 -0.07175303995609283 
C 0.10613175481557846 0.11038315296173096 -0.2524453103542328 
O -0.044854726642370224 1.107247233390808 -1.1223431825637817 
C -1.0706980228424072 -0.20964567363262177 0.44975921511650085 
O -2.2282018661499023 0.5314821600914001 0.013216782361268997 
H 2.1924240589141846 0.29353588819503784 0.20479634404182434 
H 1.4405832290649414 -1.249806523323059 0.7084696292877197 
H 1.8067798614501953 -0.9353023171424866 -1.0112892389297485 
H -1.4292056560516357 0.699674129486084 1.1175808906555176 
H -1.0585483312606812 1.2599831819534302 -1.0363190174102783 
H -1.2002835273742676 -1.1849910020828247 0.9305009841918945 
