12

C -0.8054421544075012 1.3966144323349 1.2564584016799927 
O -0.5877125859260559 -0.022436710074543953 1.2800931930541992 
C 0.0889551118016243 -0.5816453695297241 0.22831259667873383 
N 0.7480213642120361 0.3760091960430145 -0.7135501503944397 
O 0.9464035034179688 -0.37859147787094116 -1.800291895866394 
C 0.42900964617729187 -1.6714497804641724 -1.5599287748336792 
C -0.11872005462646484 -1.8871678113937378 -0.3220522999763489 
H -1.2516509294509888 1.739115595817566 0.31189244985580444 
H 0.1448085457086563 1.9350816011428833 1.410247802734375 
H -1.4870824813842773 1.6077769994735718 2.0885183811187744 
H 0.5862694978713989 -2.3157877922058105 -2.422513008117676 
H 1.307140588760376 -0.1975194364786148 0.24281355738639832 
