15

C 1.4593712091445923 -0.45221802592277527 0.949365496635437 
C 0.5654062628746033 0.21770326793193817 -0.03375836834311485 
C 0.5407495498657227 1.691420555114746 -0.3080357313156128 
N 1.0096136331558228 0.6998411417007446 -1.3075977563858032 
C -0.9666459560394287 -0.8611643314361572 -0.40718787908554077 
O -1.084337830543518 -0.02689075842499733 0.6758639812469482 
N -2.2258148193359375 -1.4405347108840942 -0.4913357198238373 
H 1.1416021585464478 -0.24993792176246643 1.9865728616714478 
H 1.420640230178833 -1.5460598468780518 0.8278209567070007 
H 2.483132839202881 -0.11048153042793274 0.8206785917282104 
H -0.41913360357284546 2.1804981231689453 -0.5146336555480957 
H 1.3229286670684814 2.322608470916748 0.11745896190404892 
H 0.2704806923866272 0.4984419047832489 -2.0027554035186768 
H -3.048551559448242 -0.8159211874008179 -0.5894442200660706 
H -2.4694409370422363 -2.1073050498962402 0.2769879400730133 
