11

O -1.0773334503173828 1.7346082925796509 1.9215168952941895 
C -0.378714919090271 0.8098493814468384 1.3609514236450195 
N -0.944472074508667 0.4790075421333313 0.21186329424381256 
C -0.5350400805473328 -0.6912482380867004 -0.568257212638855 
C 0.8963953256607056 -0.6322494149208069 -0.9383989572525024 
C 2.085062265396118 -0.5728304386138916 -1.2298022508621216 
H 0.56106036901474 0.41011130809783936 1.7630870342254639 
H -1.7432737350463867 1.4353760480880737 0.7782160639762878 
H -1.1184637546539307 -0.7283142805099487 -1.5007257461547852 
H -0.742590606212616 -1.614256501197815 -0.011451450176537037 
H 2.9973702430725098 -0.6300535798072815 -1.7869991064071655 
