17

C -1.1213005781173706 -1.4038766622543335 1.8820959329605103 
N -0.016302188858389854 -0.6963468194007874 1.2430068254470825 
C -0.3710477650165558 0.3101963996887207 0.27417606115341187 
O -1.0097569227218628 1.3092315196990967 0.6520832777023315 
N 0.9133119583129883 0.4085463881492615 -0.6511579751968384 
C 1.2526692152023315 1.7928370237350464 -0.9730789661407471 
C 0.27800267934799194 -0.37031570076942444 -1.5977976322174072 
H -1.235986590385437 -2.4217350482940674 1.4851915836334229 
H -2.0638980865478516 -0.8665805459022522 1.738733172416687 
H -0.9008902311325073 -1.4707720279693604 2.960750102996826 
H 0.743783175945282 -1.279879093170166 0.9485588073730469 
H 1.5312119722366333 1.910616397857666 -2.0301384925842285 
H 0.4355655610561371 2.4797027111053467 -0.7356143593788147 
H 2.132308006286621 2.0774106979370117 -0.3572537302970886 
H -0.08733107149600983 0.09974594414234161 -2.5206573009490967 
H 0.5338159799575806 -1.4328700304031372 -1.6784510612487793 
H -1.0141551494598389 -0.4459111988544464 -0.6404471397399902 
