12

O 1.8345905542373657 -1.292553186416626 -1.8433362245559692 
C 0.6336658000946045 -0.6965131163597107 -1.5758907794952393 
C 0.27517011761665344 -0.01569649949669838 0.09396179020404816 
N 0.8272030353546143 -1.0111690759658813 0.5431643724441528 
N -1.0487537384033203 0.4294391870498657 2.327868938446045 
C -1.0789560079574585 1.258805274963379 1.3518627882003784 
N -0.48143139481544495 1.0333424806594849 0.10504686832427979 
H 2.4942030906677246 -0.9215785264968872 -1.2189213037490845 
H -0.22255969047546387 -1.3768675327301025 -1.693304419517517 
H 0.4296703040599823 0.25589171051979065 -2.078004837036133 
H -2.0032498836517334 0.14053449034690857 2.623141288757324 
H -1.6595526933670044 2.196364641189575 1.36441171169281 
