19

C -1.042813777923584 -1.4195514917373657 -1.997244954109192 
C -1.3951889276504517 -1.0718441009521484 -0.6141369938850403 
O -0.2359904646873474 1.084976315498352 -0.9952153563499451 
C 0.9912420511245728 1.0601143836975098 -0.7274265885353088 
C 1.5271626710891724 0.13388849794864655 0.32182663679122925 
C 1.1669737100601196 0.7255852818489075 1.6247739791870117 
C -0.22695320844650269 1.0280050039291382 2.0043015480041504 
H -0.37011241912841797 -2.2802016735076904 -2.0549607276916504 
H -0.5177120566368103 -0.5712621212005615 -2.4812402725219727 
H -1.95213782787323 -1.6113922595977783 -2.599379777908325 
H -1.1455695629119873 -1.7124980688095093 0.23399308323860168 
H -2.130246162414551 -0.27846887707710266 -0.44353681802749634 
H 1.7194210290908813 1.6434663534164429 -1.3234038352966309 
H 0.9171103239059448 -0.8183695673942566 0.14416810870170593 
H 2.60442852973938 -0.04566781222820282 0.2259744107723236 
H 1.9228264093399048 0.728449285030365 2.4072883129119873 
H -0.7124491930007935 1.483623743057251 1.1266931295394897 
H -0.833543062210083 0.16246703267097473 2.3079843521118164 
H -0.2864478528499603 1.7586805820465088 2.839541435241699 
