13

O -1.4534797668457031 -1.420828938484192 -1.581041693687439 
N -1.060261607170105 -0.08130373805761337 -1.6572619676589966 
C -0.12790262699127197 0.20651128888130188 -0.7543730139732361 
C 0.5765193104743958 -0.7054981589317322 0.2349526584148407 
C 0.784358561038971 0.26615962386131287 1.3900219202041626 
C 0.27878862619400024 1.5610127449035645 -0.5109997987747192 
H -2.4306418895721436 -1.4247928857803345 -1.6695889234542847 
H -0.0235670767724514 -1.5989950895309448 0.4664519727230072 
H 1.5410529375076294 -1.034450888633728 -0.17789168655872345 
H 1.732861876487732 0.22722604870796204 1.931134581565857 
H -0.06739506870508194 0.3397030532360077 2.0799906253814697 
H 0.7974646687507629 1.3661137819290161 0.8255122303962708 
H -0.5477983355522156 2.2991433143615723 -0.576907753944397 
