15

C 0.727973222732544 0.7043963074684143 1.5377397537231445 
C 0.13247685134410858 1.3580588102340698 0.3033314645290375 
C 0.6134365797042847 0.717364490032196 -0.9536707401275635 
C -0.7398866415023804 0.030291331931948662 -0.761328399181366 
C -0.7508080005645752 -1.4591776132583618 -0.45470812916755676 
H 0.04828796535730362 0.7335699200630188 2.3991291522979736 
H 1.1646307706832886 -0.30919262766838074 1.439110279083252 
H 1.5694235563278198 1.3805979490280151 1.786543607711792 
H -1.1786093711853027 0.6831120848655701 0.14238645136356354 
H 1.451762318611145 0.005833392031490803 -0.8998359441757202 
H 0.6808245778083801 1.3420422077178955 -1.8523216247558594 
H -1.4636850357055664 0.3542426526546478 -1.5223685503005981 
H -0.39574602246284485 -2.036501169204712 -1.3234357833862305 
H -0.08753278106451035 -1.7069761753082275 0.37758925557136536 
H -1.7725484371185303 -1.797661542892456 -0.21816155314445496 
