9

N -0.37598323822021484 -0.4283202886581421 1.0155043601989746 
C 0.9998762607574463 -0.6657201051712036 0.4167385697364807 
C 0.8182504773139954 0.11346279084682465 -0.7489631772041321 
C -0.5262812972068787 0.5624791979789734 -0.8500126600265503 
N -1.2506502866744995 0.3428570628166199 0.24116498231887817 
H -0.8231749534606934 -1.1476906538009644 1.5917874574661255 
H 0.576372504234314 -0.014087436720728874 1.5562812089920044 
H 1.5933576822280884 0.26088789105415344 -1.4932307004928589 
H -1.0117669105529785 0.9761314988136292 -1.729270100593567 
