14

O 0.6236194968223572 0.04788363352417946 2.442945957183838 
C 0.7626423835754395 0.49363675713539124 1.213819146156311 
C 1.178916335105896 -0.3789646029472351 -0.059746239334344864 
C -0.03789637237787247 0.136207714676857 -0.8565981984138489 
C -0.9970533847808838 -0.6456032991409302 -1.4809527397155762 
C -0.7182444334030151 0.4539403021335602 0.8029035329818726 
H 1.1924856901168823 1.5150452852249146 1.0849722623825073 
H 2.158430337905884 -0.2191014438867569 -0.5251052975654602 
H 1.049493670463562 -1.4449621438980103 0.19226181507110596 
H 0.12202966213226318 1.1472365856170654 -1.252516508102417 
H -1.1406121253967285 -1.7050267457962036 -1.2396314144134521 
H -1.614709734916687 -0.22807417809963226 -2.2850964069366455 
H -1.3870607614517212 1.3382364511489868 0.9015496969223022 
H -1.1920408010482788 -0.5104544758796692 1.0611943006515503 
