14

C -1.7410147190093994 -0.6623370051383972 -0.06930936872959137 
C -0.5264613032341003 0.13016527891159058 -0.5823163390159607 
C -1.2487504482269287 1.7049586772918701 0.7492786645889282 
N -0.4097239673137665 1.4495493173599243 1.6430805921554565 
C 0.691244900226593 0.163197323679924 0.07393206655979156 
O 0.7986146807670593 0.7048859596252441 1.3086763620376587 
C 2.016930103302002 -0.2958545982837677 -0.44612306356430054 
H -1.7231277227401733 -0.8126863837242126 1.0137865543365479 
H -2.682788610458374 -0.16945238411426544 -0.33508265018463135 
H -1.7126725912094116 -1.6514623165130615 -0.554828941822052 
H -0.441928893327713 0.07490610331296921 -1.6715285778045654 
H 2.8088862895965576 0.44154641032218933 -0.25958243012428284 
H 1.946887493133545 -0.5097638964653015 -1.5178263187408447 
H 2.3020386695861816 -1.2297333478927612 0.06358341872692108 
