13

O -2.3438806533813477 0.007941478863358498 0.3270103335380554 
C -1.109958529472351 -0.5584519505500793 0.1788434535264969 
C 0.3914868235588074 0.057212475687265396 -1.1588993072509766 
C 0.21082629263401031 1.0380395650863647 -0.13471491634845734 
O 1.142580270767212 0.9029474258422852 0.8005384802818298 
C 1.4771584272384644 -0.8427752256393433 -0.8452736735343933 
C 1.9062656164169312 -0.29999682307243347 0.32380518317222595 
H -2.331381320953369 0.625647783279419 1.0831894874572754 
H -0.5335907340049744 -0.8172714710235596 1.072489857673645 
H -1.208134412765503 -1.3938794136047363 -0.5150025486946106 
H -0.21823732554912567 0.054030172526836395 -2.0683064460754395 
H -0.45240336656570435 1.8982430696487427 -0.08099339157342911 
H 2.680727005004883 -0.5233590006828308 1.0496004819869995 
