14

C -1.4952595233917236 -0.8456944227218628 -0.3661687672138214 
N -1.5369889736175537 0.6580222249031067 -0.31194794178009033 
C -0.3413439095020294 -0.0955478698015213 0.13909870386123657 
C 0.8569812178611755 0.2209445983171463 1.0341050624847412 
C 1.7939262390136719 -0.3371761441230774 -0.06980116665363312 
C 0.7018017768859863 0.5592371225357056 -0.7875106334686279 
O 0.9217936992645264 1.5446988344192505 0.452959269285202 
H -2.167231321334839 -1.3412904739379883 0.3375072479248047 
H -1.491847276687622 -1.2573363780975342 -1.3797285556793213 
H -2.198171854019165 1.1120665073394775 0.323255330324173 
H 0.9377973675727844 0.126684308052063 2.132319927215576 
H 1.7712451219558716 -1.4169961214065552 -0.2870824933052063 
H 2.809499740600586 0.07225961983203888 -0.0438309870660305 
H -0.7451695203781128 1.101452112197876 -1.2047520875930786 
