13

C 0.17174603044986725 -0.40939703583717346 1.644392967224121 
C -0.16016174852848053 -0.9220584630966187 0.25339657068252563 
N 0.8703628778457642 -0.8811588883399963 -0.8429665565490723 
C -0.26741716265678406 -0.0166251789778471 -0.9238495230674744 
C -1.1785715818405151 0.24186410009860992 -2.056199073791504 
C -0.7164515852928162 1.4155555963516235 -1.5769964456558228 
H -0.7414157390594482 -0.10303786396980286 2.1650750637054443 
H 0.857801616191864 0.44856786727905273 1.5995335578918457 
H 0.6672099828720093 -1.1848914623260498 2.2478485107421875 
H -0.7916404604911804 -1.811456322669983 0.20423725247383118 
H 1.7101272344589233 -0.4303951561450958 -0.5317280888557434 
H -0.03846202790737152 1.2194771766662598 -0.40620505809783936 
H -0.3831274211406708 2.433556079864502 -1.7765389680862427 
