8

O 0.6208851933479309 1.2637300491333008 -0.491716593503952 
C -0.5981672406196594 0.751701831817627 0.038450248539447784 
C -0.6196101307868958 -0.6328107118606567 -0.260172039270401 
N 0.5080353021621704 -1.087120771408081 -0.9722844362258911 
C 0.953053891658783 -0.09549487382173538 -0.1636153757572174 
H -1.09961998462677 1.2997217178344727 0.8331846594810486 
H -1.301798701286316 -1.3262697458267212 0.2426103949546814 
H 1.5234936475753784 -0.18889448046684265 0.7727991938591003 
