13

N -0.03609592467546463 -0.4985383152961731 1.8447680473327637 
C 0.1540701538324356 -1.5351712703704834 0.9948931336402893 
O -0.2371714562177658 -1.386630654335022 -0.271420419216156 
C -0.7889045476913452 -0.10225671529769897 -0.7178837656974792 
C 0.18844427168369293 1.0866755247116089 -0.6740205883979797 
C 1.5591546297073364 0.722798764705658 -1.0727314949035645 
N 2.615542411804199 0.37234342098236084 -1.444828748703003 
H -1.0507267713546753 -0.28947755694389343 2.0213913917541504 
H 0.3154252767562866 -1.6022589206695557 2.257337808609009 
H -1.0880259275436401 -0.2962092161178589 -1.753485918045044 
H -1.6962889432907104 0.1329692006111145 -0.1444295048713684 
H -0.17067164182662964 1.860163927078247 -1.3651432991027832 
H 0.2352483719587326 1.5355916023254395 0.3255530595779419 
