21

C -1.3639061450958252 1.8259317874908447 -0.3615663945674896 
C -0.013863868080079556 1.1271183490753174 -0.5564963221549988 
C 0.8451422452926636 0.8793862462043762 0.7185428142547607 
C 1.683275580406189 -0.3255130350589752 0.31029441952705383 
C 1.519586443901062 -1.490071415901184 1.2556822299957275 
C -0.07379809767007828 -0.2986597418785095 -1.158374547958374 
C -1.1419874429702759 -1.2271922826766968 -0.6178695559501648 
H -1.8799530267715454 1.9795516729354858 -1.3101351261138916 
H -2.0239996910095215 1.2600750923156738 0.3119587302207947 
H -1.2068312168121338 2.8182506561279297 0.10350523889064789 
H 0.5951153039932251 1.7322274446487427 -1.2464743852615356 
H 1.4601482152938843 1.7640039920806885 0.9601638913154602 
H 0.17697720229625702 0.6934775710105896 1.5732003450393677 
H 1.1059560775756836 -0.6361730098724365 -0.8853780031204224 
H 0.5570002198219299 -1.583206295967102 1.7877110242843628 
H 2.276965618133545 -1.2886465787887573 2.0347652435302734 
H 1.7853926420211792 -2.4478418827056885 0.8025330305099487 
H 0.013824190013110638 -0.36166805028915405 -2.2564501762390137 
H -0.9963226914405823 -2.2580301761627197 -0.9708401560783386 
H -2.1380562782287598 -0.9079897999763489 -0.9736905097961426 
H -1.1806657314300537 -1.2550303936004639 0.47891831398010254 
