18

C -1.3807693719863892 -0.9422271251678467 0.5141919255256653 
C -0.2702611982822418 -0.01339273527264595 0.019457954913377762 
C -0.8665690422058105 1.2001690864562988 -0.712674081325531 
C 0.6403096318244934 0.4737943112850189 1.1707072257995605 
C 2.0257699489593506 0.14274978637695312 -0.6302060484886169 
C 0.7884705662727356 -0.7232900857925415 -0.8857020139694214 
H -2.0040111541748047 -1.2945432662963867 -0.32088759541511536 
H -0.965297520160675 -1.821132779121399 1.0275919437408447 
H -2.034586191177368 -0.41119346022605896 1.2238742113113403 
H -1.49332857131958 0.8683480620384216 -1.5530569553375244 
H -0.07086209207773209 1.8452773094177246 -1.1070256233215332 
H -1.4958277940750122 1.7915308475494385 -0.030154654756188393 
H 0.2535076439380646 1.3162537813186646 1.7621349096298218 
H 0.9819822311401367 -0.3359795808792114 1.8247119188308716 
H 2.7746434211730957 -0.4878232479095459 -0.09673089534044266 
H 1.5514073371887207 0.9409170150756836 0.5804542303085327 
H 0.8658006191253662 -1.7853516340255737 -0.591801106929779 
H 0.49675479531288147 -0.685591459274292 -1.9484912157058716 
