11

N -1.2870861291885376 -0.8079419136047363 -0.27420178055763245 
C 0.05856228619813919 -0.2374628186225891 1.193656325340271 
C 1.0479333400726318 -0.5453510284423828 0.03925401344895363 
O 1.6565582752227783 0.7969393134117126 0.21757450699806213 
C 0.19495820999145508 1.0218788385391235 0.2872202396392822 
C -0.11898108571767807 -0.013686232268810272 -0.8052600622177124 
H -2.079735040664673 -0.14303505420684814 -0.20253145694732666 
H -0.9553583264350891 -0.9061451554298401 1.0796947479248047 
H 1.70973539352417 -1.4030557870864868 -0.11032658815383911 
H -0.17193126678466797 2.0414528846740723 0.4503553807735443 
H -0.07608752697706223 0.18104706704616547 -1.8922933340072632 
