12

C -2.0032217502593994 0.4781906306743622 -0.10467779636383057 
C -0.5433383584022522 0.8870425820350647 0.039520323276519775 
O -0.15453657507896423 2.037479877471924 0.08969604969024658 
N 0.3291720747947693 -0.2297513484954834 0.09996549040079117 
C 1.6781572103500366 -0.14607757329940796 0.2950577139854431 
N 2.252401113510132 -1.3992491960525513 0.13935288786888123 
H -2.6284372806549072 1.3754655122756958 -0.10117742419242859 
H -2.159830093383789 -0.06795186549425125 -1.0469696521759033 
H -2.3096160888671875 -0.18545204401016235 0.7173430323600769 
H -0.09234178066253662 -1.1675617694854736 0.029667098075151443 
H 2.479124069213867 -0.418596476316452 -0.6793845891952515 
H 3.238556385040283 -1.3094123601913452 0.43478283286094666 
