18

C 0.20054392516613007 -1.454675555229187 -1.3630356788635254 
C 0.7269694209098816 0.9648928046226501 -1.2158962488174438 
C 1.0812944173812866 1.4786007404327393 0.001543126767501235 
N 0.5993226170539856 0.24718064069747925 1.7435532808303833 
C -0.3606087267398834 -0.4993360936641693 1.202095866203308 
O -0.23038718104362488 -1.7566932439804077 1.0348405838012695 
C -1.7257277965545654 0.13624566793441772 1.0662016868591309 
H 1.0799880027770996 -1.9484881162643433 -0.984049379825592 
H 0.23201106488704681 -1.1031886339187622 -2.3957598209381104 
H -0.7542892694473267 -1.9218361377716064 -1.1189337968826294 
H -0.23322641849517822 1.1418989896774292 -1.6852033138275146 
H 1.506661057472229 0.5662882328033447 -1.8705191612243652 
H 2.1203184127807617 1.4106242656707764 0.3439289331436157 
H 0.45670244097709656 2.219738245010376 0.49254316091537476 
H 1.4739874601364136 -0.31074023246765137 1.6080635786056519 
H -2.314438581466675 -0.40530914068222046 0.3170067369937897 
H -2.205291509628296 0.044960107654333115 2.051259756088257 
H -1.653829574584961 1.1898376941680908 0.7723607420921326 
