13

C 0.032745812088251114 -0.7834795117378235 1.3514823913574219 
C 0.0831250250339508 -0.2791241407394409 -0.05531913787126541 
C -0.8733749985694885 0.7883875370025635 -0.5379865169525146 
N -0.6945587396621704 1.9203325510025024 0.23772962391376495 
C 0.9680272340774536 -0.700425386428833 -1.0736140012741089 
O 0.918388843536377 -0.2764692008495331 -2.289565086364746 
H 0.24210374057292938 0.029999222606420517 2.0739927291870117 
H 0.7464970946311951 -1.6013641357421875 1.527342677116394 
H -0.9716771841049194 -1.1481602191925049 1.6142432689666748 
H -0.5878880620002747 0.8848209381103516 -1.6552209854125977 
H -1.9183024168014526 0.4204951822757721 -0.5326635837554932 
H 0.3034299314022064 2.1791927814483643 0.13256268203258514 
H 1.7514837980270386 -1.4342055320739746 -0.7929837703704834 
