23

C -1.087900161743164 -2.4842894077301025 1.0734338760375977 
C -1.1810530424118042 -0.9603760242462158 0.9276283383369446 
C 0.09015462547540665 -0.3113468587398529 0.3141768276691437 
C 0.40435516834259033 -0.9023332595825195 -1.0647426843643188 
C -0.14211119711399078 1.189555048942566 0.43848949670791626 
C 2.118286609649658 1.8881295919418335 -0.09641878306865692 
C -0.8987230658531189 1.7849069833755493 -0.7160316705703735 
H -1.0423935651779175 -2.984062910079956 0.09589354693889618 
H -0.18433576822280884 -2.7767326831817627 1.6280276775360107 
H -1.969338297843933 -2.8627219200134277 1.6107499599456787 
H -2.0548970699310303 -0.6988914608955383 0.29870161414146423 
H -1.3604885339736938 -0.5097073912620544 1.9192606210708618 
H 0.9189283847808838 -0.6043317914009094 0.9970364570617676 
H 0.8191877603530884 -1.9163631200790405 -0.9734886884689331 
H -0.4798946678638458 -0.9484997987747192 -1.7089236974716187 
H 1.154416561126709 -0.3181952238082886 -1.6072404384613037 
H 1.1152753829956055 1.7730720043182373 0.5827738642692566 
H 1.9468704462051392 2.0136048793792725 -1.1797422170639038 
H 2.7516870498657227 1.002647876739502 0.0650039091706276 
H 2.561904191970825 2.7858927249908447 0.34666794538497925 
H -0.795608401298523 1.3193806409835815 -1.714822769165039 
H -1.960545301437378 1.6575883626937866 -0.43237918615341187 
H -0.7237773537635803 2.863072156906128 -0.8040542006492615 
