16

C -2.552241563796997 -0.15389175713062286 -0.1997569352388382 
C -1.2825247049331665 0.7152796387672424 -0.25465965270996094 
C -0.0520571731030941 -0.1613631695508957 -0.4287974536418915 
O 1.1951321363449097 0.7697574496269226 -0.5847725868225098 
C 1.8829336166381836 -0.020049292594194412 0.20574840903282166 
O 1.6387696266174316 -0.23975856602191925 1.5130815505981445 
N 3.0888640880584717 -0.4221373200416565 -0.222010537981987 
H -2.506640911102295 -0.8690369725227356 0.6341522336006165 
H -3.448962450027466 0.46943777799606323 -0.07003247737884521 
H -2.6815738677978516 -0.7323130369186401 -1.1272132396697998 
H -1.394511103630066 1.4517523050308228 -1.0775861740112305 
H -1.2219440937042236 1.3046557903289795 0.6752786636352539 
H 0.6395971775054932 -0.3761399984359741 1.415502905845642 
H -0.08154010772705078 -0.689800500869751 -1.3928170204162598 
H 3.629990816116333 -1.0769352912902832 0.32785794138908386 
H 3.346982717514038 -0.22941021621227264 -1.1817318201065063 
