16

C -0.7422720789909363 -1.3169002532958984 -0.4729676842689514 
C -1.0267159938812256 -0.6227417588233948 0.8151567578315735 
C -1.1504396200180054 0.8345532417297363 0.40574946999549866 
C 0.07529629021883011 1.2484875917434692 -0.36697086691856384 
C 1.4349522590637207 0.8268194794654846 -0.2080502212047577 
C 1.994535207748413 -0.39519065618515015 -0.4311596751213074 
H -1.3390610218048096 -1.0426536798477173 -1.3434979915618896 
H -0.33258891105651855 -2.328721046447754 -0.4812988340854645 
H -0.20014621317386627 -0.7606193423271179 1.5268528461456299 
H -1.9467748403549194 -0.9838302135467529 1.3203153610229492 
H -1.3514775037765503 1.5358664989471436 1.2421694993972778 
H -2.0308187007904053 0.9157679677009583 -0.25888791680336 
H -0.010813684202730656 2.274508237838745 -0.7541959285736084 
H 2.1415717601776123 1.629815697669983 0.061201225966215134 
H 3.0075087547302246 -0.6288370490074158 -0.09496039152145386 
H 1.4451062679290771 -1.143812894821167 -0.9985235929489136 
