16

O -2.3141613006591797 -0.8847072124481201 1.4454656839370728 
C -2.159942626953125 -0.7448870539665222 0.09031402319669724 
C -0.7058604955673218 0.5537601709365845 -0.45071929693222046 
C 0.7539817690849304 0.36723434925079346 -0.22075125575065613 
C 2.0026142597198486 0.857353150844574 -0.826710045337677 
N 1.6248701810836792 1.2241415977478027 0.5723749399185181 
C 0.20854158699512482 -0.960161030292511 0.060077521950006485 
H -2.6852591037750244 -0.04227197542786598 1.7753835916519165 
H -1.890675663948059 -1.7566930055618286 -0.271905779838562 
H -1.137036681175232 1.3185133934020996 0.19784510135650635 
H -1.015991449356079 0.6162217855453491 -1.4925471544265747 
H 1.9752914905548096 1.6865724325180054 -1.5362818241119385 
H 2.8146536350250244 0.14147236943244934 -0.9817041158676147 
H 2.1705822944641113 0.6438934803009033 1.2219537496566772 
H 0.28312668204307556 -1.7365968227386475 -0.7010053992271423 
H 0.08346934616565704 -1.2900526523590088 1.0893672704696655 
