15

C -1.3534282445907593 -0.8905068635940552 -0.6338744759559631 
O -0.5147753953933716 -1.9541574716567993 -0.49752429127693176 
C 0.07805189490318298 -1.1977614164352417 0.7053055763244629 
C 1.4456787109375 -0.7312830090522766 0.3896836042404175 
C 1.4397106170654297 0.5241826772689819 -0.08906388282775879 
C 0.11235120892524719 1.3121806383132935 -0.2576417922973633 
C -0.8856134414672852 -0.03806440532207489 0.401912659406662 
H -2.0562191009521484 -0.8375440239906311 -1.4634453058242798 
H -1.501355767250061 1.9280356168746948 -0.4708518385887146 
H -0.09335131198167801 -1.804735779762268 1.5986100435256958 
H 2.3248291015625 -1.3694865703582764 0.4774290919303894 
H 2.3464250564575195 1.0289627313613892 -0.4359450042247772 
H 0.24630039930343628 2.2441892623901367 0.303855299949646 
H 0.08195584267377853 1.538558006286621 -1.335608720779419 
H -1.4758044481277466 0.41138970851898193 1.1920970678329468 
