15

C 0.16061443090438843 -0.39094337821006775 1.5702306032180786 
C 0.4439578652381897 -1.530106544494629 0.610046923160553 
C 0.008153214119374752 -0.48596546053886414 -1.4640675783157349 
O 0.5515754222869873 0.7259884476661682 -1.3559621572494507 
C -0.3524766266345978 1.817015528678894 -1.088260293006897 
H 0.8086947798728943 0.4698014557361603 1.3829957246780396 
H 0.3314047157764435 -0.7275648713111877 2.6114211082458496 
H -0.8877111673355103 -0.06630437821149826 1.5029090642929077 
H 1.475844383239746 -1.9073196649551392 0.6912813782691956 
H -0.283934086561203 -2.343846321105957 0.6632422804832458 
H 0.5558958053588867 -1.3452707529067993 -0.7632755637168884 
H -1.0703227519989014 -0.5430651307106018 -1.2684342861175537 
H -0.8734210133552551 1.7121230363845825 -0.1277945190668106 
H -1.1103116273880005 1.8781142234802246 -1.8923341035842896 
H 0.2420363575220108 2.7373428344726562 -1.071998953819275 
