18

C -2.4506616592407227 -0.14802813529968262 -0.9238628149032593 
C -1.3642704486846924 -0.41287967562675476 0.128179132938385 
C -0.002612170996144414 0.08749555796384811 -0.3063933253288269 
C 1.1632366180419922 0.0008283386123366654 0.7545682191848755 
C 2.4699599742889404 -0.6587843298912048 0.3240577280521393 
C 0.9468080401420593 1.4049702882766724 0.5276764631271362 
N 0.888285219669342 2.6417348384857178 0.41611653566360474 
H -3.4247028827667236 -0.5385587811470032 -0.5970200896263123 
H -2.5576891899108887 0.9295743107795715 -1.1138803958892822 
H -2.196467161178589 -0.6326977014541626 -1.8781167268753052 
H -1.6506707668304443 0.07172483950853348 1.0766671895980835 
H -1.3251523971557617 -1.4991254806518555 0.3430803120136261 
H 0.33753809332847595 -0.22330400347709656 -1.299914836883545 
H 0.08450997620820999 1.84506094455719 -0.3171202540397644 
H 0.8063739538192749 -0.35333240032196045 1.7314115762710571 
H 2.3123347759246826 -1.7422680854797363 0.2310791164636612 
H 2.795644521713257 -0.27220189571380615 -0.6504960060119629 
H 3.2700858116149902 -0.47852158546447754 1.0542622804641724 
