12

N -1.4903035163879395 -0.03808985650539398 1.0608876943588257 
C -0.26907411217689514 0.20809659361839294 0.40643954277038574 
O 0.4058397710323334 1.30016028881073 0.7121642827987671 
C 0.6406250596046448 -0.9926379919052124 0.1446380913257599 
O 1.5576086044311523 -0.39853477478027344 -0.8290254473686218 
C 1.020066738128662 0.7742573022842407 -1.1822713613510132 
O 1.2691030502319336 1.6989710330963135 -1.8832052946090698 
H -1.997983694076538 0.8343417048454285 1.2387839555740356 
H -2.093360424041748 -0.7215083241462708 0.5786025524139404 
H 1.1972817182540894 -1.2323400974273682 1.0613173246383667 
H 0.15240104496479034 -1.8606261014938354 -0.3125225901603699 
H -0.39220428466796875 0.42791008949279785 -0.9958087801933289 
