10

C -1.0624408721923828 0.11421281099319458 0.8144375085830688 
C -0.4174489676952362 0.4053206145763397 -0.45024123787879944 
O -0.3107598125934601 1.5259665250778198 -1.0582280158996582 
C 1.1088985204696655 -0.2887285351753235 -0.19350716471672058 
H -1.5037169456481934 0.8930728435516357 1.441088318824768 
H -0.7711636424064636 -0.47114109992980957 -1.0922930240631104 
H -1.1199877262115479 -0.9171395897865295 1.1631436347961426 
H 1.5479981899261475 -0.25085118412971497 -1.1930656433105469 
H 1.6419224739074707 0.37529751658439636 0.4898931682109833 
H 1.0690109729766846 -1.3128339052200317 0.18956851959228516 
