12

C -1.473905324935913 0.47538483142852783 0.33315718173980713 
C -0.7253181338310242 -0.8065286874771118 0.3431641459465027 
N 0.4444667398929596 -0.292937695980072 -0.33579444885253906 
C 1.407031774520874 0.4715287983417511 0.5348508954048157 
O 2.239203929901123 -0.3544132709503174 1.09884774684906 
H -1.6155613660812378 1.0896390676498413 1.2195194959640503 
H -1.7986167669296265 0.8693786859512329 -0.6263926029205322 
H 0.6673834919929504 1.0144827365875244 1.2207516431808472 
H -1.210436224937439 -1.5901926755905151 -0.2578321695327759 
H -0.4926164150238037 -1.2083747386932373 1.3395971059799194 
H 0.8891233801841736 -0.9249770045280457 -1.013079285621643 
H 1.827049970626831 1.2758249044418335 -0.11990773677825928 
