14

O -1.9877115488052368 0.4221319556236267 -0.790865421295166 
C -1.5415014028549194 -0.7099524140357971 -0.0345667265355587 
C -0.09730932861566544 -0.8679839968681335 0.23914606869220734 
C 0.8516597151756287 -0.1599826067686081 -0.7178013324737549 
C 1.4859910011291504 0.7488197684288025 0.34800395369529724 
O 0.5036069750785828 0.6757376194000244 1.4416844844818115 
H -1.6929517984390259 1.200247883796692 -0.2787363827228546 
H -2.126664161682129 -0.8232343196868896 0.895369291305542 
H -1.7748087644577026 -1.6047476530075073 -0.6485398411750793 
H 0.4158431887626648 -0.4134168326854706 1.5188407897949219 
H 1.5554159879684448 -0.8661797046661377 -1.1852525472640991 
H 0.3464231491088867 0.4198479652404785 -1.503570795059204 
H 1.5690462589263916 1.7995035648345947 0.05118987709283829 
H 2.4673118591308594 0.39313191175460815 0.695356547832489 
