12

O -1.5844981670379639 1.1615383625030518 0.07296828180551529 
C -1.2649414539337158 0.03961397707462311 -0.6208033561706543 
C 0.1390848159790039 0.16150109469890594 -1.1753777265548706 
C 0.5096871852874756 -0.7285676598548889 0.00714745232835412 
C 1.1097248792648315 -0.09452575445175171 1.1977933645248413 
O 1.8375966548919678 -0.6719839572906494 1.9962106943130493 
H -2.4240548610687256 0.979211688041687 0.5403584241867065 
H -0.7825056314468384 -0.9808262586593628 0.22222588956356049 
H 0.28652089834213257 -0.31587693095207214 -2.1470630168914795 
H 0.5689477920532227 1.1695343255996704 -1.1465270519256592 
H 0.8427456021308899 -1.7456879615783691 -0.21665149927139282 
H 0.8281853795051575 0.9779650568962097 1.3311537504196167 
