15

C -0.5768723487854004 1.9117951393127441 -2.1503841876983643 
C -0.34047436714172363 1.2136250734329224 -1.1470201015472412 
C -0.008321475237607956 -0.006127330474555492 -0.36633142828941345 
C -0.4492546617984772 -1.4760595560073853 0.009009738452732563 
C 0.24839186668395996 -0.9567000865936279 1.3142974376678467 
C -0.5013614892959595 0.38104870915412903 1.0015735626220703 
C 1.359309434890747 -0.3414580821990967 0.4052134156227112 
H -0.40780994296073914 2.8698861598968506 -2.6451773643493652 
H -1.5358251333236694 -1.6619203090667725 0.06273481249809265 
H 0.08057159930467606 -2.2735939025878906 -0.5417711138725281 
H 0.35437390208244324 -1.4204400777816772 2.2866907119750977 
H -0.5384644269943237 1.8166828155517578 -0.029319340363144875 
H -1.596550464630127 0.50702303647995 1.1480271816253662 
H 1.9258286952972412 0.5330466628074646 0.7493758201599121 
H 1.9864585399627686 -1.096807837486267 -0.09691877663135529 
