15

O -1.3140982389450073 1.4523050785064697 1.459911823272705 
C -0.8485931754112244 1.265088677406311 0.1322963982820511 
C -0.6401659846305847 -0.21128694713115692 -0.15135395526885986 
C 0.2570708990097046 -0.6297591924667358 -1.3416365385055542 
C 1.4329081773757935 -0.7896468043327332 -0.4503937065601349 
C 0.7497362494468689 -0.6856796741485596 0.838630199432373 
O 1.0243849754333496 -0.2750522196292877 2.006652355194092 
H -0.6218166351318359 1.0345240831375122 2.024820327758789 
H 0.09533055126667023 1.7992501258850098 -0.06400685012340546 
H -1.581987977027893 1.686917781829834 -0.5743499398231506 
H -1.573421835899353 -0.7771143913269043 0.00747861759737134 
H -0.13369563221931458 -1.506638526916504 -1.8852386474609375 
H 0.39382898807525635 0.18061169981956482 -2.0695114135742188 
H 0.2572767734527588 -1.6728754043579102 0.71535724401474 
H 2.5032429695129395 -0.8706446886062622 -0.6486563086509705 
