13

C -1.718832015991211 0.5219991207122803 -0.413021057844162 
C -0.6800862550735474 0.20785687863826752 0.6585034132003784 
C 0.29906848073005676 -0.879758894443512 0.2977360785007477 
N 1.4911739826202393 -1.0689647197723389 0.915334939956665 
C 2.4101884365081787 -0.36889564990997314 0.33776789903640747 
N 1.5434123277664185 0.0750899538397789 -0.93059903383255 
O -0.6335939168930054 0.7943440079689026 1.7305216789245605 
H -1.68411386013031 1.597545862197876 -0.632511556148529 
H -1.5668227672576904 -0.038746822625398636 -1.344374418258667 
H -2.7239463329315186 0.3038540482521057 -0.024669108912348747 
H -0.1685202270746231 -1.7465174198150635 -0.20220738649368286 
H 1.6555155515670776 1.052063226699829 -1.2488116025924683 
H 1.7562936544418335 -0.5319385528564453 -1.735408902168274 
