12

C -1.7849349975585938 -0.17701759934425354 -0.15199625492095947 
C -0.3671771287918091 -0.13633739948272705 -0.3349998891353607 
C 0.7410090565681458 -0.9440453052520752 -0.43362775444984436 
C 1.8320642709732056 -0.23761041462421417 0.20180973410606384 
N 1.5490670204162598 0.9310435652732849 0.7241294384002686 
N 0.12052755802869797 1.067750096321106 0.4231503903865814 
H -2.35892915725708 0.6571010947227478 -0.5737755298614502 
H -2.280400037765503 -1.1428556442260742 -0.26208531856536865 
H -0.9356691241264343 0.6755180358886719 1.005244493484497 
H 0.7723033428192139 -1.9459223747253418 -0.8467671275138855 
H 2.8583133220672607 -0.5976495146751404 0.27560603618621826 
H -0.03433919697999954 1.969818353652954 -0.047593213617801666 
