15

C -1.8358166217803955 -0.46413958072662354 -0.47092780470848083 
C -0.5055267214775085 0.07523933798074722 -0.12564586102962494 
O 0.801496684551239 0.3798670172691345 -1.7962005138397217 
C 0.4162828326225281 -0.5611311197280884 0.8895605802536011 
N 1.801772117614746 -0.11099565774202347 0.7867413759231567 
C -0.061795804649591446 1.3304734230041504 -0.7111583352088928 
N -0.2534727454185486 2.527155637741089 -0.6388682126998901 
H -2.0891923904418945 -1.326366901397705 0.14863912761211395 
H -1.8842759132385254 -0.740928590297699 -1.5390249490737915 
H -2.616204023361206 0.2983134686946869 -0.3163466453552246 
H 1.6818026304244995 0.3383728563785553 -1.2992908954620361 
H -0.06257706135511398 -0.35641226172447205 1.871969223022461 
H 0.36198681592941284 -1.6542563438415527 0.7658509016036987 
H 1.862047553062439 0.8809042572975159 0.9658620953559875 
H 2.3834736347198486 -0.6160956621170044 1.4688396453857422 
