14

C 1.0791003704071045 -0.08313771337270737 -1.0294462442398071 
C 1.301652193069458 -0.5145063996315002 0.43427908420562744 
C -0.028590252622961998 -0.6238062381744385 1.134413480758667 
C -1.0845099687576294 0.048824213445186615 0.5700539350509644 
C -0.8427097797393799 1.0700470209121704 -0.35654863715171814 
O 0.3125317394733429 1.1700016260147095 -1.0498324632644653 
H 2.0319530963897705 0.1547241061925888 -1.5352760553359985 
H 0.5442399382591248 -0.8411378860473633 -1.595893383026123 
H 1.9509657621383667 0.22333146631717682 0.9312443137168884 
H 1.8366308212280273 -1.4789198637008667 0.4537109434604645 
H -0.10077454149723053 -1.177635669708252 2.0718278884887695 
H -2.299713134765625 -0.08755050599575043 0.6252008080482483 
H -3.1023573875427246 0.33126211166381836 -0.027287501841783524 
H -1.5984187126159668 1.80850350856781 -0.6264461874961853 
