10

O -1.0455527305603027 1.8548883199691772 0.7611801028251648 
C -0.4866317808628082 0.771378219127655 0.4998076260089874 
C -0.9745870232582092 -0.6688974499702454 0.3163561522960663 
N -0.2051272988319397 -1.4213767051696777 -0.46488845348358154 
C 0.8277119398117065 -0.6337165832519531 -0.8804640173912048 
N 0.7999280095100403 0.6055933833122253 -0.3415827453136444 
H -0.006202102173119783 0.22529862821102142 1.4727611541748047 
H -1.762937068939209 -1.1003243923187256 0.9386718273162842 
H 1.6555877923965454 -1.0246058702468872 -1.454380750656128 
H 1.1978098154067993 1.3917622566223145 -0.847460925579071 
