6

O -0.6199804544448853 1.643941879272461 0.332492470741272 
C -0.2976565957069397 0.5285567045211792 0.6213871240615845 
C 0.5645748376846313 -0.5217453241348267 -0.659177839756012 
O -0.6232426166534424 -0.7619720697402954 -0.20726141333580017 
H 0.16183029115200043 0.15293221175670624 1.5252928733825684 
H 0.8144745826721191 -1.0417132377624512 -1.612733244895935 
