9

N -1.2395166158676147 0.09929011762142181 1.0385878086090088 
C -0.8552448749542236 -0.25473788380622864 -0.22071273624897003 
C 0.5977354645729065 -0.5694718956947327 -0.47702255845069885 
N 1.2298429012298584 0.20383742451667786 -1.4130233526229858 
N 2.4592766761779785 0.2156626135110855 -0.9019367694854736 
O -1.6028168201446533 -0.10111331194639206 -1.1924039125442505 
H -1.5837106704711914 1.052350401878357 1.2038390636444092 
H -0.8454002141952515 -0.3416067957878113 1.8356165885925293 
H 1.839834213256836 -0.30421072244644165 0.12705594301223755 
