13

C -1.3259485960006714 -0.8820629715919495 0.43243077397346497 
C 0.06992312520742416 -0.810043454170227 -0.09407677501440048 
O -0.25220152735710144 1.150813102722168 -1.1898311376571655 
C 1.1618921756744385 -0.33632737398147583 0.7187378406524658 
C 1.3751527070999146 1.2640143632888794 0.48465695977211 
N 0.8066015839576721 1.900980830192566 -0.41888153553009033 
H -2.078701972961426 -0.8695552349090576 -0.3635726869106293 
H -1.4532803297042847 -1.8199403285980225 1.0045995712280273 
H -1.5274893045425415 -0.05208238586783409 1.122605800628662 
H 0.278945654630661 -1.257944941520691 -1.0644258260726929 
H -0.10203799605369568 1.4052659273147583 -2.131167411804199 
H 2.1353814601898193 -0.7735166549682617 0.4708680510520935 
H 0.9720070958137512 -0.43177494406700134 1.794722318649292 
