16

C 1.3866196870803833 0.27210766077041626 1.1292948722839355 
C -0.06105931103229523 -0.2511364817619324 1.12498140335083 
C -0.5194412469863892 -1.0873546600341797 -0.19298578798770905 
C 0.6535494923591614 0.2132645696401596 -2.2660605907440186 
C -1.4591511487960815 0.06783547252416611 -0.4243120551109314 
C -1.0873746871948242 0.7613480687141418 0.6631515622138977 
H 1.6377290487289429 0.5872541666030884 2.148327112197876 
H 2.094406843185425 -0.4912033677101135 0.7947211861610413 
H 1.5380104780197144 1.1438356637954712 0.468877911567688 
H -0.28318169713020325 -0.8367784023284912 2.0157907009124756 
H 0.38047826290130615 -1.3423120975494385 -0.8083009719848633 
H -0.9765604138374329 -2.045976400375366 0.09493435174226761 
H 0.6312249302864075 1.1283124685287476 -1.7751686573028564 
H -0.27011293172836304 -0.009194035083055496 -2.8644304275512695 
H -2.1470372676849365 0.2550111413002014 -1.254154920578003 
H -1.5181000232696533 1.6349859237670898 1.1453335285186768 
