16

C 0.6786487102508545 -1.3520828485488892 -1.236211895942688 
C 0.48622703552246094 -1.5459792613983154 0.26739275455474854 
O 0.8823300004005432 -0.38347601890563965 1.0382075309753418 
C 0.09128186106681824 0.6283475756645203 1.406319499015808 
C -0.3310708999633789 1.9329382181167603 -0.006425279658287764 
C -1.2070268392562866 0.9305257797241211 0.6965532898902893 
H -0.08169778436422348 -0.665685772895813 -1.6468286514282227 
H 1.675728440284729 -0.9496459364891052 -1.4472155570983887 
H 0.5695128440856934 -2.313159465789795 -1.7495887279510498 
H -0.5403614044189453 -1.836793065071106 0.5178926587104797 
H 1.1589566469192505 -2.332988977432251 0.6393951773643494 
H 0.6805470585823059 1.7424038648605347 0.8958913087844849 
H -0.4982103109359741 2.989881753921509 0.17183786630630493 
H 0.02773493155837059 1.6798523664474487 -1.007960319519043 
H -1.6324340105056763 0.11270753294229507 0.09940001368522644 
H -1.960166335105896 1.3631540536880493 1.3613407611846924 
