16

C -0.49618521332740784 -1.0546302795410156 0.3207433223724365 
C -1.1456005573272705 0.1584123820066452 -0.2812877297401428 
C -0.9494922161102295 1.44436776638031 0.21379627287387848 
O 0.7103705406188965 1.094766616821289 -0.9925281405448914 
C 1.5369988679885864 0.27583155035972595 -0.22841134667396545 
C 0.9528471827507019 -1.1543570756912231 -0.22509826719760895 
H -1.0754224061965942 -1.9591766595840454 0.0871923416852951 
H -0.46911630034446716 -0.945523202419281 1.4154043197631836 
H -1.739771842956543 0.053623590618371964 -1.1905426979064941 
H -2.1605565547943115 0.7538380026817322 0.7220931053161621 
H -0.41822364926338196 1.6079455614089966 1.1453691720962524 
H -1.3989629745483398 2.2840917110443115 -0.31237486004829407 
H 1.6148276329040527 0.6024941205978394 0.8378393054008484 
H 2.577158212661743 0.2544991075992584 -0.6144313812255859 
H 1.5366748571395874 -1.8697201013565063 0.37925708293914795 
H 0.9241173267364502 -1.5198071002960205 -1.2618194818496704 
