16

C -0.5789697766304016 0.3604632318019867 1.4961011409759521 
C 0.29761195182800293 0.2318626493215561 0.2496042251586914 
C 0.21633675694465637 1.225697636604309 -0.733386754989624 
C 1.38857102394104 -0.8232043385505676 0.2854378819465637 
O 0.580851674079895 -2.033425807952881 -0.02648852951824665 
C -0.44684821367263794 -1.4011869430541992 -0.6013695597648621 
N -1.4673917293548584 -1.4156112670898438 -1.2451400756835938 
H -0.4181022047996521 1.3409395217895508 1.9641228914260864 
H -1.6498277187347412 0.27742886543273926 1.2293838262557983 
H -0.3560394048690796 -0.4249015748500824 2.2281341552734375 
H 0.9236690402030945 1.2446624040603638 -1.5580841302871704 
H -0.9863407611846924 0.8305653929710388 -1.7294036149978638 
H -0.18035748600959778 2.2167937755584717 -0.45448440313339233 
H 2.1581125259399414 -0.7035582661628723 -0.49191492795944214 
H 1.8631396293640137 -0.9449659585952759 1.2656195163726807 
H -1.3444147109985352 0.01844029873609543 -1.878131628036499 
