15

C -1.0714010000228882 -0.29382026195526123 -0.7606310844421387 
C 0.3493283987045288 1.3732998371124268 -1.6631572246551514 
C 0.014580926857888699 0.6894199252128601 -0.401447594165802 
N 1.1211304664611816 -0.11318271607160568 -0.004671026952564716 
C 1.009493112564087 -0.4514562785625458 1.4097418785095215 
C -0.3165479302406311 -1.1199835538864136 1.1608669757843018 
H -2.1297717094421387 -0.05542502552270889 -0.6893460750579834 
H -0.7800130248069763 -1.0166691541671753 -1.509661078453064 
H 0.7522368431091309 0.7547066807746887 -2.471020460128784 
H 0.14487311244010925 2.425945281982422 -1.8508546352386475 
H -0.36945411562919617 1.4134420156478882 0.337266206741333 
H 1.810772180557251 -1.1443617343902588 1.7207403182983398 
H 0.9693608283996582 0.4080977737903595 2.085352659225464 
H -1.1891051530838013 -0.6906976699829102 1.6742191314697266 
H -0.31548264622688293 -2.1793148517608643 0.9626026749610901 
