14

C 0.8349319696426392 1.1492207050323486 -0.5126345157623291 
C -0.2088555544614792 0.13311943411827087 -0.030619533732533455 
C -0.26657572388648987 -1.3043951988220215 -0.6874662637710571 
C -1.292858600616455 -0.336742103099823 -0.818092942237854 
O 0.5250652432441711 -1.162278652191162 1.64159095287323 
C -0.21649006009101868 -0.0439506359398365 1.550413966178894 
H 0.4282032549381256 2.171544075012207 -0.4590938091278076 
H 1.141000509262085 0.9521684050559998 -1.5458331108093262 
H 1.739443063735962 1.0962092876434326 0.11141195893287659 
H 0.35181742906570435 -1.6287858486175537 -1.5311474800109863 
H -0.2736358940601349 -2.019601583480835 0.1421581357717514 
H -1.6815400123596191 0.1809072643518448 -1.698099136352539 
H -1.2802679538726807 -0.08460097014904022 1.869460940361023 
H 0.19976218044757843 0.897186279296875 1.9679509401321411 
