16

C 0.4196334779262543 -2.0811192989349365 0.5406531691551208 
C -0.5261231660842896 -1.0433703660964966 -0.08823895454406738 
C -0.38843581080436707 0.34266987442970276 0.569339394569397 
C -1.3246729373931885 1.4282294511795044 0.01659872941672802 
C 0.823936939239502 1.858422875404358 -0.6008669137954712 
O 0.9456720352172852 0.8561962246894836 0.3622473478317261 
H 0.19007441401481628 -2.246962785720825 1.6036025285720825 
H 0.36406606435775757 -3.0369040966033936 0.01142739225178957 
H 1.4615912437438965 -1.7202168703079224 0.49002572894096375 
H -1.5735317468643188 -1.3676495552062988 0.009408687241375446 
H -0.3204433023929596 -0.9407890439033508 -1.1668989658355713 
H -0.5598905086517334 0.23332759737968445 1.6579393148422241 
H -1.595197319984436 1.1318422555923462 -1.0204501152038574 
H -0.19904813170433044 2.414809465408325 -0.2506459653377533 
H 1.568947434425354 2.6584973335266113 -0.4935927093029022 
H 0.7134212255477905 1.5130177736282349 -1.640548825263977 
