14

C 1.334814429283142 -1.2571324110031128 -1.042428731918335 
C -0.12652288377285004 0.7644965648651123 -0.8598975539207458 
C -0.9170708060264587 0.05883161351084709 0.08128007501363754 
N -1.1544095277786255 -1.2613747119903564 -0.04014113172888756 
C -1.1187317371368408 0.9977518916130066 1.2083494663238525 
C -0.40075045824050903 2.091367244720459 0.8923214673995972 
O 0.3477438986301422 1.8852530717849731 -0.2731858491897583 
H 1.7432489395141602 -1.9232078790664673 -0.2744685113430023 
H 1.9365317821502686 -0.3331717252731323 -1.0878403186798096 
H 1.3898950815200806 -1.7195549011230469 -2.031892776489258 
H -1.0757089853286743 -1.7556816339492798 0.8508334755897522 
H 0.10805389285087585 -1.439091682434082 -0.8077864050865173 
H -1.7411209344863892 0.7928274869918823 2.082568883895874 
H -0.32597243785858154 3.0986874103546143 1.3022880554199219 
