16

C 1.0496740341186523 1.3708001375198364 -0.6971227526664734 
C 0.08997423201799393 0.3800153136253357 -0.029817897826433182 
C -1.1117926836013794 0.8157868981361389 0.7755562663078308 
C 0.6085683107376099 -0.6626248955726624 0.9212884902954102 
C 0.1179489716887474 -1.8348164558410645 0.30806368589401245 
N -1.2598354816436768 -1.6344553232192993 -0.18707795441150665 
C -0.3898276686668396 -0.8220261335372925 -0.8941298127174377 
H 0.9040132164955139 2.3719875812530518 -0.26813840866088867 
H 0.8643307685852051 1.4256484508514404 -1.778026819229126 
H 2.1018660068511963 1.0900368690490723 -0.5497634410858154 
H -0.8949253559112549 1.3410097360610962 1.7115837335586548 
H -1.972478985786438 1.204790711402893 0.21689341962337494 
H 1.2797555923461914 -0.5548487305641174 1.775209903717041 
H 0.559809684753418 -2.8207311630249023 0.13337267935276031 
H -1.6487910747528076 -0.7761693000793457 0.5438985228538513 
H -0.2982894778251648 -0.8944035768508911 -1.9817895889282227 
