15

C -0.4372456669807434 1.4950523376464844 -1.3322385549545288 
C 0.4941003620624542 0.62248694896698 -0.5296295881271362 
N 0.23330919444561005 0.37467554211616516 0.8231588006019592 
C -0.9690981507301331 -0.41335004568099976 0.9839146137237549 
C -0.3747667074203491 -1.6793931722640991 0.6417743563652039 
N 0.8808302283287048 -1.7422798871994019 1.3499186038970947 
C 1.2285863161087036 -0.49831753969192505 1.3713445663452148 
H -1.347490906715393 1.7677537202835083 -0.7662538886070251 
H -0.7395681738853455 0.9847307801246643 -2.2590651512145996 
H 0.06052432581782341 2.432560682296753 -1.6237503290176392 
H 0.009223317727446556 -1.1332244873046875 -0.5536670684814453 
H 1.5318284034729004 0.5459426641464233 -0.8668291568756104 
H -1.8711658716201782 -0.024776559323072433 0.5304632186889648 
H -0.8763948678970337 -2.638054370880127 0.5130259990692139 
H 2.177327871322632 -0.09380684047937393 1.717833399772644 
