17

O 2.160985231399536 -0.8807857632637024 1.4425685405731201 
C 3.0776538848876953 -0.9441705942153931 0.49795642495155334 
C 1.3838889598846436 -0.5934558510780334 -0.0825328677892685 
C 0.22965526580810547 0.24943013489246368 0.4989664554595947 
C -0.7215762734413147 0.6299843192100525 -0.6208516359329224 
C -1.7323179244995117 -0.3756410777568817 -1.127695083618164 
C -2.1907575130462646 0.8197068572044373 -0.3282279074192047 
H 3.7653777599334717 -0.02978901006281376 0.5821537375450134 
H 1.889294147491455 0.047894008457660675 -0.8341134786605835 
H 1.0760564804077148 -1.554467797279358 -0.48721495270729065 
H 0.6310624480247498 1.1478252410888672 0.9871236681938171 
H -0.29849234223365784 -0.33860376477241516 1.2609367370605469 
H -0.29661333560943604 1.298778772354126 -1.3731701374053955 
H -1.9488343000411987 -0.3994289040565491 -2.1951732635498047 
H -1.7623202800750732 -1.3511927127838135 -0.6408405303955078 
H -2.717500686645508 1.6193052530288696 -0.8482188582420349 
H -2.5278873443603516 0.6499969363212585 0.6946471929550171 
