13

N 0.6664392948150635 0.8015366792678833 1.838625192642212 
C -0.24736368656158447 -0.12261910736560822 1.4918473958969116 
C -1.1701412200927734 0.04092126712203026 0.2993682622909546 
C -0.4050445556640625 -0.6410105228424072 -0.8641442060470581 
C 1.0474187135696411 -0.14139054715633392 -0.6541951298713684 
O 1.339380145072937 -0.3347713351249695 0.7542555928230286 
H 0.578027069568634 1.6672241687774658 1.2678914070129395 
H -2.1412312984466553 -0.4436178207397461 0.4976794123649597 
H -1.3605486154556274 1.1085560321807861 0.11885828524827957 
H -0.4498637020587921 -1.733888864517212 -0.7804440855979919 
H -0.8056342601776123 -0.3575887978076935 -1.8402619361877441 
H 1.1680718660354614 0.9176164269447327 -0.9245778322219849 
H 1.7804903984069824 -0.7609673738479614 -1.2049026489257812 
