9

N -1.419937252998352 0.5557520389556885 0.38887760043144226 
C -0.7946288585662842 -0.6177405118942261 0.6878691911697388 
O -1.3377054929733276 -1.698194980621338 0.9004661440849304 
C 0.672605574131012 -0.5220598578453064 0.7507721185684204 
C 1.8792246580123901 -0.9837813973426819 0.9257652163505554 
C 2.855093479156494 0.5215104222297668 0.6167305707931519 
N 1.642494559288025 0.7655957937240601 0.4996242821216583 
H -0.9052215814590454 1.412060022354126 0.2210438847541809 
H -2.431870222091675 0.561382532119751 0.3276999294757843 
