14

O -1.6999539136886597 0.8035212755203247 -0.0670008510351181 
C -0.547370970249176 0.5075879096984863 -0.8248962759971619 
C -0.17535525560379028 -0.9390661716461182 -0.8467033505439758 
O -0.662434458732605 -1.1220297813415527 1.3386754989624023 
C 0.5738129615783691 -0.7868541479110718 1.4473135471343994 
N 1.3022361993789673 0.006460590288043022 0.6466990113258362 
C 0.7590909004211426 1.0727300643920898 -0.2010418027639389 
H -1.6812422275543213 0.1617145836353302 0.6780408620834351 
H -0.7217265963554382 0.9239517450332642 -1.8292577266693115 
H 0.7616912126541138 -1.2468379735946655 -1.305248498916626 
H -0.9504848122596741 -1.7141847610473633 -0.8402982354164124 
H 1.008701205253601 -0.9628201127052307 2.451073408126831 
H 0.5527461767196655 2.005837917327881 0.35636216402053833 
H 1.4802898168563843 1.28998863697052 -1.0037176609039307 
