17

C -2.0797698497772217 0.49500831961631775 0.7185731530189514 
C -0.29827091097831726 0.11814970523118973 0.07099732011556625 
C 7.577518408652395e-05 -1.3285361528396606 -0.2995835542678833 
C 1.347876787185669 -0.8192245960235596 0.26272353529930115 
C 1.805536150932312 0.3161534070968628 -0.7115092873573303 
C 0.4241712987422943 1.0090973377227783 -0.845171332359314 
O 0.5572484135627747 -0.01413684617727995 1.2568968534469604 
H -2.9585180282592773 0.44729694724082947 0.06704718619585037 
H -2.073698043823242 -0.3608154356479645 1.3994276523590088 
H -2.058499336242676 1.440811038017273 1.2678402662277222 
H -0.07563922554254532 -1.5412776470184326 -1.3709690570831299 
H -0.5279954075813293 -2.0655601024627686 0.321658194065094 
H 2.0767457485198975 -1.447953701019287 0.7976142764091492 
H 2.1838042736053467 -0.1033705472946167 -1.6593633890151978 
H 2.6177432537078857 0.8980725407600403 -0.25259941816329956 
H 0.39047762751579285 2.087714433670044 -0.6723214387893677 
H -1.33128821849823 0.8685713410377502 -0.351261168718338 
