12

C -1.6890300512313843 0.07913725078105927 -0.020167289301753044 
C -0.34478282928466797 -0.6157885193824768 -0.08921520411968231 
C 1.431780457496643 0.761430561542511 0.33996307849884033 
O 2.464487314224243 0.1433619111776352 -0.30794575810432434 
H -2.0135815143585205 0.2416010946035385 1.017526388168335 
H -2.4743282794952393 -0.5199474692344666 -0.515316367149353 
H -1.6645444631576538 1.056020736694336 -0.5238643884658813 
H -0.2997947633266449 -1.566746473312378 0.46050015091896057 
H 0.044673264026641846 -0.7502157092094421 -1.1017478704452515 
H 0.5627104640007019 0.05935721844434738 0.7929055690765381 
H 0.9778726696968079 1.4594438076019287 -0.3824061453342438 
H 2.9339637756347656 -0.4041743576526642 0.3509528636932373 
