17

O 1.463478684425354 -2.3521718978881836 0.9181402325630188 
C 0.3144897222518921 -1.7615855932235718 0.3245101869106293 
C 0.09090504050254822 -0.37160179018974304 0.9761388301849365 
C -1.2852773666381836 0.33703917264938354 0.13469059765338898 
C -0.6336753964424133 0.8341806530952454 -1.0541223287582397 
C 0.4628071188926697 1.7410995960235596 -0.8792685270309448 
O 1.1689790487289429 0.37093693017959595 0.9393433928489685 
H 2.0242574214935303 -1.578081727027893 1.1376408338546753 
H 0.47869640588760376 -1.6242231130599976 -0.7620890736579895 
H -0.5498466491699219 -2.417095184326172 0.45661619305610657 
H -0.3386932909488678 -0.45184463262557983 1.9928170442581177 
H -1.5557929277420044 1.1357710361480713 0.8454357981681824 
H -2.083857536315918 -0.3993160128593445 -0.00628650700673461 
H -0.6809649467468262 2.1326239109039307 -1.4422959089279175 
H -0.6688070297241211 0.2664738893508911 -1.9827755689620972 
H 1.2694393396377563 1.7939906120300293 -1.618761658668518 
H 0.5238621234893799 2.3438048362731934 0.020266219973564148 
