16

C 0.4386961758136749 -1.249729871749878 0.15320691466331482 
C 0.01368380431085825 -0.22497518360614777 1.2420432567596436 
C -1.1781034469604492 0.6605616807937622 0.7797040939331055 
O -1.001630187034607 1.24465012550354 -0.5192043781280518 
C 0.8562599420547485 0.8529887199401855 -1.1973140239715576 
C 0.5166520476341248 -0.5226791501045227 -1.1868356466293335 
H 1.3947618007659912 -1.7216986417770386 0.43271347880363464 
H -0.3128054738044739 -2.05249285697937 0.10598475486040115 
H -0.24403659999370575 -0.7377719283103943 2.181781053543091 
H 0.8596528172492981 0.4193709194660187 1.5083591938018799 
H -1.3253064155578613 1.5042219161987305 1.4854971170425415 
H -2.102309226989746 0.06746196746826172 0.7683960199356079 
H 0.7937020659446716 1.4377175569534302 -2.1129164695739746 
H 1.3401905298233032 1.3420727252960205 -0.3487022817134857 
H 0.661933422088623 -1.0968775749206543 -2.1131246089935303 
H -0.7113416790962219 0.07717940956354141 -1.179589033126831 
