15

C 0.5237864851951599 1.2355523109436035 -0.7244076728820801 
C 0.283704549074173 0.05145007744431496 0.2107837200164795 
C 1.3908803462982178 -0.4244990050792694 1.100272536277771 
N 0.6288666725158691 -1.315913200378418 -0.33379143476486206 
C -1.1010710000991821 0.05509025231003761 0.8547455072402954 
O -1.374343991279602 0.9133585691452026 1.707635760307312 
N -2.0322372913360596 -0.6772619485855103 0.14277610182762146 
H 1.474949598312378 1.1356195211410522 -1.2573943138122559 
H -0.287170946598053 1.3764386177062988 -1.43326997756958 
H 0.5587524771690369 2.170030117034912 -0.12594081461429596 
H 1.0742430686950684 -1.755979061126709 0.6237965822219849 
H 2.3579893112182617 -0.11861862987279892 0.6763357520103455 
H 1.3543721437454224 -1.1835733652114868 -1.060650110244751 
H -2.9914724826812744 -0.6215888261795044 0.4636302888393402 
H -1.8612486124038696 -0.8401053547859192 -0.8445218205451965 
