15

O -0.9726731181144714 -0.007659240160137415 2.6908204555511475 
C -0.4834132790565491 0.07249198853969574 1.5722929239273071 
C -1.0599939823150635 0.8929911851882935 0.4082304835319519 
C -1.062354326248169 0.060596346855163574 -0.9078356027603149 
C 0.3485594391822815 -0.34390783309936523 -1.2042566537857056 
C 1.1530078649520874 -0.6994162201881409 -0.11767220497131348 
C 0.7498548030853271 -0.6556739807128906 1.1919705867767334 
H -0.436292439699173 1.7886627912521362 0.2543579936027527 
H -2.078303098678589 1.2305158376693726 0.6585455536842346 
H -1.4964731931686401 0.6365991830825806 -1.7424834966659546 
H -1.6971681118011475 -0.825292706489563 -0.776824951171875 
H 2.681804895401001 -0.025958102196455002 -1.3695865869522095 
H 0.7696371078491211 -0.31657448410987854 -2.213521718978882 
H 2.320347785949707 -0.604499101638794 -0.43561792373657227 
H 1.2634594440460205 -1.2028757333755493 1.9915813207626343 
