13

N -2.180896043777466 0.8814055919647217 -0.7418720722198486 
C -0.8577735424041748 0.515998363494873 -0.46691784262657166 
O -0.6005340218544006 -0.7868764400482178 -0.7478768229484558 
C 0.6257757544517517 -1.3062281608581543 -0.1612599641084671 
C 1.373650312423706 -0.27892789244651794 0.709019660949707 
C 1.4289817810058594 0.9827541708946228 -0.13778425753116608 
N 0.28263160586357117 1.3970438241958618 -0.4878877103328705 
H -2.1891605854034424 1.9132860898971558 -0.6867751479148865 
H -1.5688798427581787 0.7354125380516052 0.5189942717552185 
H 1.2440497875213623 -1.6450079679489136 -1.0019973516464233 
H 0.33674541115760803 -2.1733596324920654 0.44509920477867126 
H 0.7723809480667114 -0.06875830143690109 1.6119416952133179 
H 2.3445017337799072 -0.6858762502670288 1.0156702995300293 
