13

C 0.5859588980674744 -0.045185644179582596 1.443208932876587 
C 0.9351434707641602 -0.2823958694934845 -0.021176759153604507 
N 0.8165972828865051 0.8125033974647522 -0.9957178235054016 
C -0.026737762615084648 -0.4289628267288208 -1.1813384294509888 
C -1.4546000957489014 -0.32194793224334717 -0.9503178596496582 
O -1.9105422496795654 0.7609986662864685 -0.29626479744911194 
H 1.374415636062622 0.5595840811729431 1.9168165922164917 
H -0.36576515436172485 0.495219349861145 1.5323634147644043 
H 0.4792536795139313 -1.002893090248108 1.980556607246399 
H 1.8290210962295532 -0.8990934491157532 -0.16423769295215607 
H 0.14722108840942383 1.5040171146392822 -0.6328293681144714 
H 0.274444580078125 -1.0533294677734375 -2.029355764389038 
H -2.684410810470581 -0.0985143855214119 -0.6017070412635803 
