21

C -3.097538948059082 -0.24432355165481567 0.828474223613739 
C -1.858625054359436 -1.0270265340805054 0.5887945294380188 
C -0.5523160696029663 0.7550771236419678 -0.7063689827919006 
O 0.36424070596694946 1.3487251996994019 -1.6264878511428833 
C 1.6927742958068848 1.1128036975860596 -1.1320053339004517 
C 1.8571863174438477 -0.3188498616218567 -0.7415587306022644 
C 2.5573954582214355 -0.7328335046768188 0.5067640542984009 
H -3.639037609100342 -0.04006370157003403 -0.10750002413988113 
H -3.8120152950286865 -0.7754770517349243 1.4931281805038452 
H -2.8823184967041016 0.7178452610969543 1.3206067085266113 
H -1.1226892471313477 -1.1194138526916504 1.3874092102050781 
H -1.8547474145889282 -1.8157750368118286 -0.1626841127872467 
H -0.6435917019844055 1.3406521081924438 0.22396720945835114 
H -1.5106161832809448 0.697627067565918 -1.2250229120254517 
H 1.9121615886688232 1.763587236404419 -0.2617873549461365 
H 2.350907325744629 1.4156140089035034 -1.9645007848739624 
H 1.7903728485107422 -1.0514997243881226 -1.551262617111206 
H -0.03866453096270561 -0.2528270184993744 -0.43286558985710144 
H 2.3632092475891113 -0.026607420295476913 1.3295437097549438 
H 3.660576105117798 -0.7862001061439514 0.3901814818382263 
H 2.2408223152160645 -1.7380614280700684 0.8287980556488037 
