10

O 0.720018744468689 -0.5076249241828918 0.8862671852111816 
C -0.9908631443977356 -0.27878671884536743 0.8494722843170166 
C -1.3114006519317627 0.5490370988845825 -0.2773391008377075 
C -0.4327377378940582 0.9795265197753906 -1.0774340629577637 
C 0.9055266380310059 0.8182567954063416 -1.426068663597107 
O 1.7290945053100586 1.0346091985702515 -2.2715706825256348 
H 0.8408470153808594 -1.4798851013183594 0.79078608751297 
H -1.3739075660705566 -1.3082338571548462 0.8280221223831177 
H -1.091795802116394 0.17014749348163605 1.8448196649551392 
H 1.0052176713943481 0.022953489795327187 -0.1469547003507614 
