13

C -2.0240447521209717 -0.03953355550765991 -0.5142028331756592 
O -1.0603978633880615 -0.43591970205307007 0.5070368051528931 
C 0.022679608315229416 0.29795336723327637 0.7706548571586609 
C 0.409932017326355 1.34493088722229 -0.2006009817123413 
N 1.421004295349121 0.7152389287948608 -0.650320827960968 
C 1.5393940210342407 -0.607557475566864 0.4506673514842987 
N 2.5820252895355225 -0.6089808940887451 1.2080965042114258 
H -2.420347213745117 0.9617142081260681 -0.30594608187675476 
H -2.8280513286590576 -0.7792907357215881 -0.4702660143375397 
H -1.5425456762313843 -0.0632786899805069 -1.5002723932266235 
H -0.04084750637412071 2.263218641281128 -0.5814324617385864 
H 1.1450330018997192 -1.488188624382019 -0.09094081819057465 
H 2.910738945007324 -1.569554328918457 1.3472838401794434 
