7

O 0.2571083605289459 2.7171244621276855 -0.524941623210907 
C -0.5813631415367126 2.0262441635131836 -0.9207891821861267 
C -0.17436206340789795 -0.12404457479715347 -0.5872045755386353 
C 0.38541486859321594 -0.9824106693267822 0.17282824218273163 
C 0.5505905151367188 -1.936337947845459 1.2024716138839722 
N 0.7352371215820312 -2.8379082679748535 1.981366753578186 
H -1.1726256608963013 1.1373335123062134 -1.3237314224243164 
