12

C -1.3046516180038452 0.3058199882507324 -0.7148712873458862 
C -0.0021572643890976906 -0.07209233194589615 -0.027095401659607887 
C 0.6977169513702393 -1.21233332157135 -0.5068324208259583 
C 1.3445037603378296 -2.0229198932647705 -1.1571658849716187 
C 0.46052229404449463 0.6746655702590942 1.1117697954177856 
C 0.6544695496559143 1.016137957572937 2.342043399810791 
H -1.1979026794433594 0.24745182693004608 -1.8047233819961548 
H -1.595789909362793 1.3343371152877808 -0.45761895179748535 
H -2.0973691940307617 -0.38398832082748413 -0.395270973443985 
H 0.9985854029655457 1.1985528469085693 0.25228744745254517 
H 1.7689814567565918 -2.898913860321045 -1.6175224781036377 
H 0.27309122681617737 1.8132823705673218 2.9749999046325684 
