15

O -0.7876540422439575 2.19484281539917 -1.0701128244400024 
C -0.5126372575759888 0.8791706562042236 -1.2844173908233643 
C 1.2236069440841675 -0.13757193088531494 -0.5564678907394409 
C 0.17045661807060242 -1.1577627658843994 -0.14533965289592743 
C 0.06406348198652267 -0.9067838788032532 1.3938478231430054 
C -0.39348262548446655 0.42972493171691895 0.8970881104469299 
C -1.0297009944915771 -0.1693844348192215 -0.3664172291755676 
H -0.1163913682103157 2.7091376781463623 -1.5894455909729004 
H 2.0502610206604004 0.05294723063707352 0.1372671127319336 
H 1.5678666830062866 -0.1644747406244278 -1.602577567100525 
H 0.1726689338684082 -2.1772758960723877 -0.5771640539169312 
H 0.9890068769454956 -0.9484400153160095 1.9811134338378906 
H -0.7266268134117126 -1.523405909538269 1.8573986291885376 
H -0.5999881625175476 1.4067726135253906 1.3309019804000854 
H -2.0714492797851562 -0.4874962270259857 -0.40567561984062195 
