14

C -0.023737270385026932 1.4744230508804321 -0.0033532839734107256 
C 0.2747775912284851 0.24686837196350098 0.8489764928817749 
C 0.9878580570220947 -0.7124400734901428 -0.14338646829128265 
C -0.2091674655675888 -0.8572552800178528 -1.1104382276535034 
O -1.3569650650024414 -1.007677435874939 -0.25842198729515076 
C -1.0829530954360962 -0.38465356826782227 0.8590859174728394 
H 0.8309332132339478 1.9009506702423096 -0.5466321110725403 
H -0.7387063503265381 2.205617904663086 0.3807345926761627 
H 0.7135759592056274 0.39049211144447327 1.8408746719360352 
H 1.2457664012908936 -1.696022391319275 0.2795538902282715 
H 1.8567001819610596 -0.2709205746650696 -0.6412567496299744 
H -0.32837003469467163 0.5293423533439636 -1.1500965356826782 
H -0.24033933877944946 -1.643224835395813 -1.8785337209701538 
H -1.929372787475586 -0.17550036311149597 1.5228934288024902 
