9

C -0.5409467220306396 0.1860419660806656 0.9153750538825989 
C 0.02057046815752983 -0.6172336935997009 -0.9968160390853882 
O 0.9958071112632751 0.059473730623722076 0.10178389400243759 
H -0.861131489276886 -0.8099469542503357 1.2170288562774658 
H -1.3526736497879028 0.7147126793861389 0.4176975190639496 
H -0.11103099584579468 0.7505511045455933 1.748422384262085 
H 0.6696671843528748 -1.3745921850204468 -1.450010895729065 
H -0.1779613047838211 0.1711331009864807 -1.7371172904968262 
H 1.3576995134353638 0.9198601245880127 -0.21636337041854858 
