16

C 2.123663902282715 -0.11902168393135071 -0.32450398802757263 
C 1.0188533067703247 -0.07649320363998413 0.6871346831321716 
C -0.6359707713127136 1.2179069519042969 -0.12370888143777847 
C -1.324152946472168 -0.06123114377260208 0.36615338921546936 
O -2.389263391494751 -0.5444040894508362 -0.4415598511695862 
C -0.1335921287536621 -1.0316766500473022 0.35145020484924316 
H 2.803696870803833 0.7418276071548462 -0.2665075361728668 
H 1.8302741050720215 -0.30030038952827454 -1.3776239156723022 
H 2.7073402404785156 -1.010511875152588 -0.019258135929703712 
H 0.3802329897880554 1.1360803842544556 0.6389543414115906 
H -0.3538395166397095 1.1735074520111084 -1.1803498268127441 
H -1.0741219520568848 2.187666654586792 0.14993448555469513 
H -1.6484462022781372 0.09675393998622894 1.4101616144180298 
H -3.1416797637939453 0.06696842610836029 -0.3293626308441162 
H -0.2203122228384018 -1.848755121231079 1.082837462425232 
H -0.0790763720870018 -1.4767073392868042 -0.6603413820266724 
