15

C -2.3568220138549805 0.039716679602861404 -0.04383860528469086 
N -1.2312167882919312 -0.2894638180732727 -0.8124751448631287 
C -0.058542001992464066 -0.24151574075222015 -0.1417681723833084 
N -0.17396190762519836 0.08273261040449142 1.1764193773269653 
C 1.1730753183364868 -0.13953228294849396 -0.9551501870155334 
O 1.142910361289978 -0.42413806915283203 -2.157233715057373 
C 2.411761999130249 0.3227638304233551 -0.2218427211046219 
H -3.1801211833953857 0.42477455735206604 -0.653406023979187 
H -1.3719546794891357 0.6033105850219727 0.9675347805023193 
H -2.6922788619995117 -0.743512749671936 0.6472814083099365 
H -1.1919914484024048 -0.24219131469726562 -1.833082914352417 
H -0.595008909702301 -0.6706768870353699 1.7317497730255127 
H 2.788818597793579 -0.48578089475631714 0.42157119512557983 
H 3.1858766078948975 0.6054583787918091 -0.9427759051322937 
H 2.1656811237335205 1.1577141284942627 0.4477289021015167 
