8

O -0.904776930809021 0.13832785189151764 1.6453857421875 
C 0.2772286832332611 -1.340590238571167 -1.0699286460876465 
C 0.242676243185997 -0.062142375856637955 -0.7308034896850586 
N 0.5010578036308289 0.9867472648620605 -0.03133285790681839 
C 0.03104744479060173 0.8699465990066528 1.2956300973892212 
H -0.5064963102340698 -2.0632691383361816 -1.2463468313217163 
H -0.2625669538974762 -0.05349798873066902 -1.8304580450057983 
H 0.6218299865722656 1.5244780778884888 1.9678537845611572 
