11

C -1.0958456993103027 0.24746061861515045 -1.3169676065444946 
C -0.5827352404594421 -0.9174817204475403 -0.813558042049408 
C 0.09563720971345901 -1.703941822052002 -0.07259421050548553 
C 0.9217374920845032 -0.8932182192802429 0.8155508041381836 
O 1.779051661491394 -1.2147246599197388 1.6251293420791626 
N 0.5403310060501099 0.6462516784667969 0.8494978547096252 
H -0.7500091195106506 0.5683130621910095 -2.3132452964782715 
H -2.180048942565918 0.40386533737182617 -1.178695797920227 
H -0.26734769344329834 0.7962610721588135 -0.04298689216375351 
H 1.3917195796966553 1.1925371885299683 0.6827850937843323 
H 0.14750981330871582 0.8746772408485413 1.765084147453308 
