19

C -2.2832469940185547 0.5509520769119263 -0.25428590178489685 
C -1.1974103450775146 -0.39938512444496155 0.25937721133232117 
C 0.21891121566295624 0.15409024059772491 0.07173851132392883 
C 0.5699832439422607 1.2896384000778198 0.8267461657524109 
C 0.9454956650733948 0.0070817419327795506 -1.317033290863037 
C 1.3067282438278198 -0.91517174243927 -0.2153131663799286 
O 0.9837930202484131 -2.243102788925171 -0.38869965076446533 
H -3.2748100757598877 0.07563839107751846 -0.19420409202575684 
H -2.10538387298584 0.8253684043884277 -1.3050917387008667 
H -2.3141562938690186 1.4903324842453003 0.3206592798233032 
H -1.3422353267669678 -0.6227655410766602 1.3268673419952393 
H -1.2401410341262817 -1.3726544380187988 -0.26410534977912903 
H 1.4010083675384521 1.9315866231918335 0.5427201390266418 
H 0.027886269614100456 1.5284777879714966 1.7458356618881226 
H 2.118098735809326 0.2882614731788635 1.7679829597473145 
H 0.39256274700164795 -0.39717525243759155 -2.1754493713378906 
H 1.6752359867095947 0.7866811752319336 -1.5292034149169922 
H 2.241605281829834 -0.27859580516815186 1.1795586347579956 
H 1.8760755062103271 -2.6992580890655518 -0.39810025691986084 
