12

C -1.2829086780548096 -0.11440404504537582 -0.19444924592971802 
C 0.018256893381476402 0.1761496216058731 0.5038530230522156 
C 0.5826550722122192 -1.2950917482376099 0.6024134755134583 
O 1.2037245035171509 -1.6242190599441528 1.5927879810333252 
C 0.8901139497756958 1.03438401222229 -0.27080807089805603 
O 0.4673052430152893 1.406562328338623 -1.4533928632736206 
H -1.2547272443771362 -0.730026364326477 -1.0958130359649658 
H -0.5553315281867981 1.1873584985733032 -1.3934004306793213 
H -2.191795587539673 -0.09074587374925613 0.39710479974746704 
H -0.14697624742984772 0.524163544178009 1.5413782596588135 
H 0.41916969418525696 -1.894535779953003 -0.30401450395584106 
H 1.8505140542984009 1.4204047918319702 0.0743410736322403 
