13

N -1.9667203426361084 0.9909636974334717 0.8873635530471802 
C -1.2778273820877075 0.0448564738035202 0.42959481477737427 
O -1.5589243173599243 -1.3040831089019775 0.13179489970207214 
C -0.21363085508346558 -1.428342342376709 -0.3942908048629761 
C 0.20250748097896576 -0.09605558961629868 0.014848445542156696 
C 1.236646056175232 0.9129226803779602 -0.4064425826072693 
N 1.4388251304626465 0.26962926983833313 0.8109102845191956 
H -1.918472409248352 1.2198512554168701 1.9009857177734375 
H 0.24956999719142914 -2.4000768661499023 -0.19567687809467316 
H 0.6310428977012634 -0.7750704288482666 -2.2445785999298096 
H 0.9961951375007629 1.980644941329956 -0.48586422204971313 
H 1.0622833967208862 -0.09853993356227875 -2.1589744091033936 
H 1.118505597114563 0.6833001375198364 1.7103300094604492 
