17

C 1.6032235622406006 1.1764692068099976 -1.1377499103546143 
O 0.5330341458320618 0.31496238708496094 -1.4744641780853271 
C -0.6334987878799438 -0.3811589479446411 0.32803621888160706 
C -1.2500706911087036 -1.7101250886917114 0.20306210219860077 
C 0.24973629415035248 -0.12141500413417816 1.498254656791687 
C -0.8565770387649536 0.6917489767074585 -0.680316686630249 
O -0.9774079322814941 1.8201509714126587 -0.0812477171421051 
H 1.2758822441101074 2.0793473720550537 -0.584455132484436 
H 2.3754653930664062 0.6512618660926819 -0.5370261073112488 
H 2.1054046154022217 1.5032718181610107 -2.0608668327331543 
H -1.9965953826904297 -1.8311917781829834 1.0075747966766357 
H -1.7769207954406738 -1.831348180770874 -0.7529559135437012 
H -0.5129885673522949 -2.523146390914917 0.298076331615448 
H 0.664324939250946 0.895468533039093 1.4971418380737305 
H 1.0597374439239502 -0.866549015045166 1.5636656284332275 
H -0.33905962109565735 -0.2656637132167816 2.423083543777466 
H -1.5236892700195312 0.39791715145111084 -1.509812831878662 
