11

C 0.6299845576286316 -0.947156548500061 -0.39795711636543274 
C -0.16173967719078064 0.36764290928840637 -0.28200289607048035 
O 0.4603239893913269 1.430092215538025 -0.9419654607772827 
C -0.8460152745246887 0.6376748085021973 0.9467759728431702 
O -1.8909530639648438 -0.11529525369405746 1.0828514099121094 
H 0.8229817748069763 -1.1624443531036377 -1.4596545696258545 
H 1.6085610389709473 -0.8682922124862671 0.10925152897834778 
H 0.08242551237344742 -1.7988568544387817 0.0350252240896225 
H -1.5688281059265137 -0.32928258180618286 -0.15862947702407837 
H 1.4096111059188843 1.4566404819488525 -0.6844870448112488 
H -0.5463517308235168 1.3292772769927979 1.7507922649383545 
