11

O -1.6226321458816528 -1.996895432472229 0.7449394464492798 
C -0.682796835899353 -1.2820205688476562 0.47466447949409485 
O -0.0360858179628849 -0.6966890096664429 1.603859782218933 
C -0.6217873692512512 1.9702608585357666 0.14090801775455475 
C 0.5909532904624939 1.414634346961975 -0.015045895241200924 
C 0.775017499923706 0.19630302488803864 -0.7866741418838501 
C -0.22703325748443604 -0.775288999080658 -0.7833027839660645 
H -0.5855819582939148 0.2027328908443451 1.5821512937545776 
H 1.4911410808563232 1.9956058263778687 0.2615908086299896 
H 1.5673805475234985 0.20480561256408691 -1.5387905836105347 
H -0.6485751271247864 -1.2334480285644531 -1.684300422668457 
