10

N -0.34953978657722473 0.8410018086433411 -1.60006844997406 
C 0.015467089600861073 0.05682653933763504 -0.5376928448677063 
N 1.1860275268554688 0.12166336178779602 0.10703511536121368 
N 0.8879385590553284 -0.5193497538566589 1.3222006559371948 
C -0.29613131284713745 -1.149074912071228 1.3219226598739624 
N -0.8602386116981506 -0.8701009750366211 0.050466153770685196 
H 0.11576923727989197 0.6261767745018005 -2.4765689373016357 
H -0.49897247552871704 1.8281482458114624 -1.4109162092208862 
H 1.3472974300384521 -0.13221484422683716 2.158302068710327 
H -1.547617793083191 -0.8030762672424316 1.0653194189071655 
