16

C -1.4015448093414307 1.2443510293960571 0.17300426959991455 
C -1.0497150421142578 -0.04792816564440727 0.8243212103843689 
N -0.8660904765129089 -1.1340034008026123 -1.1442028284072876 
C 0.43761754035949707 -1.0277308225631714 -1.1840122938156128 
O 1.3429268598556519 -1.0666874647140503 -2.008896827697754 
O 0.8017328381538391 -0.8173898458480835 0.2632167637348175 
C 1.985809326171875 -0.057354193180799484 0.48428452014923096 
H -2.130742073059082 1.117893099784851 -0.6316291093826294 
H -1.806998372077942 1.920234203338623 0.9503673911094666 
H -0.5101474523544312 1.7411047220230103 -0.23448780179023743 
H -0.45007801055908203 0.04986032471060753 1.7282729148864746 
H -1.8097010850906372 -0.816017210483551 0.9035015106201172 
H -1.3060868978500366 -1.1867355108261108 -2.0649633407592773 
H 1.7691649198532104 1.0243616104125977 0.5052664279937744 
H 2.4242982864379883 -0.3712237477302551 1.4389276504516602 
H 2.670459270477295 -0.26784664392471313 -0.3494373857975006 
