13

C -0.4678793251514435 -0.5029952526092529 -1.27189302444458 
N -1.7362056970596313 -0.6001527309417725 -0.5503100156784058 
C -0.8052901029586792 0.4822092056274414 -0.24745918810367584 
C -0.04337123781442642 0.5427275896072388 1.0529261827468872 
C 1.4169375896453857 0.34906330704689026 1.1834622621536255 
O 0.6382943987846375 -0.7314809560775757 1.420158863067627 
H 0.32483136653900146 -1.2179030179977417 -1.0328257083892822 
H -0.5261530876159668 -0.2049260139465332 -2.3246071338653564 
H -1.6351300477981567 -1.3576719760894775 0.14919054508209229 
H -1.1660757064819336 1.471783995628357 -0.555260419845581 
H -0.48028355836868286 1.0961239337921143 1.8979930877685547 
H 2.0419058799743652 0.29708635807037354 -0.390927791595459 
H 2.4384193420410156 0.37613579630851746 0.6695523262023926 
