5

O 1.1508218050003052 -0.14217497408390045 -1.025619387626648 
N -1.0995482206344604 -1.1352996826171875 -0.2675757110118866 
N -0.013263236731290817 -0.6385481357574463 -0.26398131251335144 
N 0.1431105136871338 0.43898072838783264 0.9594908952713013 
N -0.18112090229988098 1.4770419597625732 0.5976855754852295 
