17

C -2.1686105728149414 -0.19482694566249847 0.2629411518573761 
C -1.4349982738494873 1.0201754570007324 -0.27107274532318115 
C -0.17698363959789276 1.3082724809646606 0.4805639386177063 
C 0.3637987971305847 0.5134437084197998 -0.7158684730529785 
C 0.9651224613189697 -0.8509421944618225 -0.4549258053302765 
C 2.3325047492980957 -0.7947279214859009 0.2068515121936798 
O 2.915902614593506 0.22649039328098297 0.5154405236244202 
H -2.96907114982605 0.25173112750053406 0.8790789246559143 
H -1.6198618412017822 -0.891839861869812 0.9300631880760193 
H -2.6751832962036133 -0.7688799500465393 -0.5256940126419067 
H -0.6417344212532043 0.47972166538238525 -1.384876012802124 
H 0.1628614068031311 2.346965789794922 0.5230776071548462 
H -0.012251554988324642 0.7911393046379089 1.4375054836273193 
H 0.9538992047309875 1.1490962505340576 -1.382932186126709 
H 1.079993724822998 -1.4294466972351074 -1.3891576528549194 
H 0.31261172890663147 -1.4668114185333252 0.18627430498600006 
H 2.787519931793213 -1.8009562492370605 0.3921342194080353 
