14

O 1.4216898679733276 0.7140124440193176 0.3182055652141571 
C -0.3810238838195801 0.1723840981721878 -0.8440050482749939 
C 0.21351741254329681 -1.1986140012741089 -0.9958441853523254 
O 0.4876430630683899 -1.8020905256271362 0.1434302031993866 
C 0.7182943224906921 0.45310503244400024 1.4746925830841064 
N -0.5211030840873718 0.7193897366523743 1.5571192502975464 
C -1.2565423250198364 0.3266255855560303 0.33559274673461914 
H 1.3606406450271606 1.66910982131958 0.0888298749923706 
H -0.304646372795105 0.9091500639915466 -1.6433212757110596 
H 1.0950303077697754 -0.8555212020874023 -1.6629670858383179 
H -0.41474705934524536 -1.7226200103759766 -1.7643027305603027 
H 1.3771387338638306 0.20867697894573212 2.3166706562042236 
H -2.0695016384124756 1.0638617277145386 0.15793462097644806 
H -1.7263896465301514 -0.657469630241394 0.5179647207260132 
