16

C -0.48833104968070984 1.0716462135314941 0.9729375243186951 
C -0.4860124886035919 0.35143494606018066 -0.3935302793979645 
C -1.5763331651687622 0.5220688581466675 -1.254258632659912 
C 1.686703085899353 -0.681846559047699 -0.11494854092597961 
O 2.118063449859619 -0.5543294548988342 1.1733510494232178 
C 0.20880940556526184 -1.0413541793823242 -0.3359931409358978 
H 0.525105893611908 1.4226126670837402 1.213070034980774 
H -0.804921567440033 0.37271857261657715 1.759171485900879 
H -1.1803418397903442 1.924884557723999 0.9577633738517761 
H 0.39544907212257385 0.855512261390686 -1.0441462993621826 
H -1.555515170097351 0.05993995442986488 -2.244267463684082 
H -2.4558658599853516 1.0703352689743042 -0.8751240372657776 
H 2.3765342235565186 -1.1976414918899536 -0.7828835248947144 
H 1.4240293502807617 -0.9156948328018188 1.791503667831421 
H 0.03424729406833649 -1.5851517915725708 -1.28402578830719 
H -0.22162072360515594 -1.6751350164413452 0.461380273103714 
