12

O 1.0725215673446655 -0.14081966876983643 -2.2414305210113525 
C 0.13235539197921753 0.18294891715049744 -1.57708740234375 
C -0.4552726447582245 0.2833384573459625 -0.28710994124412537 
C -0.7326928377151489 -0.7977660298347473 0.694556713104248 
C 0.2030707597732544 0.36240437626838684 1.0564905405044556 
C 1.6154817342758179 0.11559300124645233 1.2025331258773804 
N 2.743098735809326 -0.18387576937675476 1.3543670177459717 
H -0.9547808766365051 0.8032059073448181 -2.2570855617523193 
H -1.471551537513733 0.8698725700378418 -1.4261854887008667 
H -1.7038745880126953 -0.8259324431419373 1.1836817264556885 
H -0.2659030854701996 -1.7777609825134277 0.5344151258468628 
H -0.18245263397693634 1.108791708946228 1.7628549337387085 
