14

O 2.319812774658203 0.8629473447799683 -0.10358154028654099 
C 1.2741115093231201 1.2559008598327637 0.5343229174613953 
C 0.08317165076732635 0.5679447650909424 0.33821380138397217 
C 0.4960472285747528 -0.8046417236328125 -0.3164295554161072 
N -0.9439144730567932 -0.9778252243995667 -0.7886601686477661 
C -0.9934812188148499 0.5649015307426453 -0.7937275171279907 
C -0.9990827441215515 -1.0679117441177368 0.6718491911888123 
H 1.3646535873413086 2.1305007934570312 1.1791515350341797 
H 1.6129393577575684 -0.22699354588985443 -0.9035682678222656 
H 1.0363121032714844 -1.6079272031784058 0.19291533529758453 
H -1.976441502571106 0.9522350430488586 -0.4926600754261017 
H -0.6335043907165527 0.9671135544776917 -1.7410352230072021 
H -1.7863070964813232 -0.5218914151191711 1.1976268291473389 
H -0.8543164730072021 -2.0943527221679688 1.0255827903747559 
