5

O 0.5695744752883911 0.2505973279476166 -1.3344690799713135 
N 1.0646477937698364 0.27710556983947754 1.3109959363937378 
N 0.5120851993560791 0.3495444655418396 0.22238175570964813 
N -1.0106773376464844 0.057896871119737625 0.2184455245733261 
N -1.1356302499771118 -0.9351441860198975 -0.41735416650772095 
