13

O 1.6462763547897339 1.4285240173339844 -1.5852129459381104 
C 1.1430555582046509 0.947771430015564 -0.5107395052909851 
N -0.08169667422771454 1.6444841623306274 -0.4744679927825928 
C -1.488879919052124 -0.3024854063987732 -0.09264626353979111 
C -0.5901409387588501 -0.5385417342185974 0.9149162173271179 
C 0.8065774440765381 -1.0357065200805664 0.6143090724945068 
N 1.596006155014038 0.21713583171367645 0.4948592483997345 
H -0.5110456347465515 1.5915559530258179 -1.4067023992538452 
H -2.4234611988067627 0.22842255234718323 0.06903336197137833 
H -1.3182014226913452 -0.681908130645752 -1.1041420698165894 
H -0.7697561383247375 -0.1948496699333191 1.9384580850601196 
H 0.7948988676071167 -1.6501035690307617 -0.29401764273643494 
H 1.196367621421814 -1.6542989015579224 1.4363532066345215 
