11

O 1.3948301076889038 1.4402104616165161 1.9460642337799072 
C 0.4835107922554016 1.1134892702102661 1.0888365507125854 
N 0.556194543838501 -0.19235306978225708 0.9000971913337708 
C -0.4425510764122009 -0.9371584057807922 0.1255195140838623 
C -0.5375245809555054 -0.488664448261261 -1.2703620195388794 
C -0.48022472858428955 -0.0840606838464737 -2.4363927841186523 
H -0.09242066740989685 1.835898756980896 0.49627557396888733 
H 1.4471646547317505 0.0832701101899147 1.8872079849243164 
H -1.443724274635315 -0.8412444591522217 0.5854127407073975 
H -0.1990911364555359 -2.00614595413208 0.14542505145072937 
H -0.6861636638641357 0.07675854861736298 -3.4680843353271484 
