16

N 1.9966694116592407 -0.1192244365811348 -1.8159856796264648 
C 1.1238230466842651 -0.059624284505844116 -0.7608481645584106 
O 0.6333412528038025 1.1080442667007446 -0.512823224067688 
C 0.7368069291114807 -1.2067519426345825 -0.020969873294234276 
C -1.4174894094467163 0.24299557507038116 -0.12230772525072098 
C -1.5755606889724731 0.3481813073158264 1.3545982837677002 
O -0.7369542121887207 1.3273645639419556 1.9413717985153198 
H 2.1202595233917236 -0.9549446105957031 -2.3595969676971436 
H 2.713463306427002 0.6054309606552124 -1.8679654598236084 
H 1.1421886682510376 -2.185809373855591 -0.2828373908996582 
H 0.6168974041938782 -1.0344150066375732 1.0554356575012207 
H -1.7153743505477905 -0.6718316078186035 -0.637843132019043 
H -1.5843065977096558 1.1656638383865356 -0.6753373146057129 
H -1.4225199222564697 -0.6410386562347412 1.8212473392486572 
H -2.6225132942199707 0.6533089876174927 1.5455442667007446 
H -0.008730384521186352 1.4226503372192383 1.3383172750473022 
