15

C -1.8879508972167969 0.09261172264814377 0.5231131315231323 
C -1.1975281238555908 -0.3792114555835724 -0.7652963399887085 
N 0.2441733330488205 -0.09729619324207306 -0.7917755246162415 
C 1.0536303520202637 -0.8859512805938721 -0.07722580432891846 
C 2.0931496620178223 -0.20225383341312408 0.5459614992141724 
N 1.8777328729629517 1.268514633178711 0.9812583923339844 
C 1.4833282232284546 1.3712257146835327 -0.18983235955238342 
H -2.9618237018585205 -0.14514967799186707 0.5027739405632019 
H -1.4380406141281128 -0.39712443947792053 1.397853970527649 
H -1.779315710067749 1.1780214309692383 0.6480817794799805 
H -1.6624644994735718 0.09932608157396317 -1.64004647731781 
H -1.3470935821533203 -1.4704128503799438 -0.8755290508270264 
H 0.8928608894348145 -1.9656486511230469 0.02315102145075798 
H 3.107128620147705 -0.5428573489189148 0.7352503538131714 
H 1.5188151597976685 2.0773701667785645 -1.0169384479522705 
