17

C -0.3164866268634796 -2.131592273712158 -0.004132370930165052 
C -0.4604916572570801 -0.5324499607086182 0.1868610978126526 
C -0.18788298964500427 0.2242128849029541 -1.150497555732727 
C -0.3807254135608673 1.638919472694397 -0.5988273024559021 
C 0.6119360327720642 2.1518969535827637 0.19204670190811157 
C 0.6327286958694458 -0.2098044902086258 1.1211704015731812 
O -1.6998226642608643 -0.229522705078125 0.5643216967582703 
H 0.7220396399497986 -2.485365152359009 -0.05521906167268753 
H -0.8074285387992859 -2.614203929901123 0.8496501445770264 
H -0.8504783511161804 -2.386267900466919 -0.9282709956169128 
H -0.9327425360679626 -0.0396360345184803 -1.9124391078948975 
H 0.8214691281318665 0.08526156842708588 -1.5534247159957886 
H -1.3392707109451294 2.131844997406006 -0.6948063969612122 
H 1.6363853216171265 1.7975481748580933 0.08881191909313202 
H 0.4687291383743286 3.014714479446411 0.8581416010856628 
H 0.40905147790908813 0.024901188910007477 2.1658802032470703 
H 1.6729896068572998 -0.4404575526714325 0.8707339763641357 
