13

N -0.42945778369903564 -1.3286352157592773 -1.0655487775802612 
C 0.8867038488388062 -1.4972895383834839 -1.0675644874572754 
O 1.6409180164337158 -0.4970143735408783 -0.7820318341255188 
C -0.06148422509431839 0.61001056432724 -0.22008217871189117 
C -1.0750378370285034 0.7505068778991699 0.8809890747070312 
C 0.37925150990486145 1.1792635917663574 1.0949583053588867 
H -0.944450855255127 -2.220317840576172 -0.9923835396766663 
H 1.3244282007217407 -2.3553860187530518 -1.6309794187545776 
H -0.09763645380735397 1.171792984008789 -1.1448496580123901 
H -1.8211793899536133 1.5401418209075928 0.7434947490692139 
H -1.4187926054000854 -0.1591150462627411 1.3680474758148193 
H 1.0202919244766235 0.5514995455741882 1.7111698389053345 
H 0.596445620059967 2.2545430660247803 1.1047801971435547 
