17

O -0.5708728432655334 -1.4052549600601196 -1.758807897567749 
C -0.22565574944019318 -1.8416661024093628 -0.5319707989692688 
C -0.20333416759967804 -0.8317310810089111 0.5955918431282043 
C 0.40825948119163513 0.5158358812332153 0.19676747918128967 
C 0.1813863068819046 1.6730378866195679 1.1999614238739014 
O -0.7075732350349426 2.37727689743042 0.27716779708862305 
C -0.419192373752594 1.3910601139068604 -0.7564700841903687 
H 0.699397087097168 -1.7963649034500122 -1.4571411609649658 
H -0.48495960235595703 -2.8736467361450195 -0.21856404840946198 
H 1.2530901432037354 -2.1102378368377686 -0.6237614154815674 
H 0.3290221691131592 -1.2506874799728394 1.4699268341064453 
H -1.2576954364776611 -0.6996450424194336 0.8750032186508179 
H 1.4607470035552979 0.3830820620059967 -0.096971794962883 
H 1.0770431756973267 2.273700714111328 1.4375691413879395 
H -0.3336804509162903 1.4096375703811646 2.124163866043091 
H -1.3416547775268555 0.9422702789306641 -1.1395817995071411 
H 0.13567329943180084 1.8433324098587036 -1.5928831100463867 
