16

C 0.5717293620109558 2.326582193374634 0.7637003064155579 
C 0.5967210531234741 0.9229825139045715 0.221745565533638 
C 1.294975757598877 0.42422977089881897 -0.8749328255653381 
C 0.7444934248924255 -0.8502640128135681 -1.3372645378112793 
C -0.24628891050815582 -1.1082290410995483 -0.31034693121910095 
C -1.4456884860992432 -2.0302035808563232 -0.3889962136745453 
N -0.21120451390743256 -0.08509839326143265 0.6735287308692932 
H 1.6108263731002808 2.7181921005249023 0.7985053658485413 
H -0.006827717646956444 2.9890363216400146 0.11200659722089767 
H 0.15945081412792206 2.3629274368286133 1.7795228958129883 
H 2.0793302059173584 0.9685367941856384 -1.3990135192871094 
H 0.8015062808990479 -1.7828128337860107 -0.32357171177864075 
H -1.6830601692199707 -2.4841995239257812 0.5808079838752747 
H -2.3264262676239014 -1.4614158868789673 -0.7236675024032593 
H -1.2325717210769653 -2.818647623062134 -1.1226563453674316 
H -0.7069652080535889 -0.09161768853664398 1.5506322383880615 
