14

C -1.1848742961883545 -1.1075754165649414 -0.38139471411705017 
C -0.44228315353393555 0.2498171627521515 -0.28956136107444763 
C -0.957762598991394 1.0394514799118042 0.9059954881668091 
O -0.2937990725040436 1.5438116788864136 1.7937198877334595 
C 1.0534336566925049 0.0675111785531044 -0.34573981165885925 
O 1.6151692867279053 -0.6263765096664429 -1.2927123308181763 
N 1.991856336593628 0.5122061967849731 0.4501788020133972 
H -0.9257307648658752 -1.7489371299743652 0.47041937708854675 
H -2.272388219833374 -0.9515823721885681 -0.38418808579444885 
H -0.897964596748352 -1.6198956966400146 -1.305387020111084 
H -0.7340656518936157 0.8313812017440796 -1.1838566064834595 
H -2.0723397731781006 1.124053716659546 0.9149520397186279 
H 1.7773264646530151 1.0735028982162476 1.276585578918457 
H 2.6137943267822266 -0.20080241560935974 -0.5155552625656128 
