15

N -0.1699478030204773 0.5828840136528015 -2.0904555320739746 
C 0.016150357201695442 -0.05801363289356232 -0.8451959490776062 
C -0.7294196486473083 0.49099189043045044 0.3655155301094055 
C -0.19561319053173065 -0.05530707910656929 1.7202551364898682 
O 1.0973930358886719 0.4140847623348236 2.0187032222747803 
C 1.3604888916015625 -0.7394658923149109 -0.6853991150856018 
N 0.5653881430625916 -1.7712286710739136 -0.7397069334983826 
H 0.07322756946086884 -0.03329594433307648 -2.8717002868652344 
H 0.37528449296951294 1.4461888074874878 -2.1485755443573 
H -0.5819907188415527 -1.3549613952636719 -0.9204498529434204 
H -0.5862647891044617 1.5872308015823364 0.3762623071670532 
H -1.8049681186676025 0.29168832302093506 0.2862452268600464 
H -0.8688358068466187 0.29283931851387024 2.5195255279541016 
H -0.24938586354255676 -1.159982442855835 1.7038766145706177 
H 1.6984933614730835 0.06634699553251266 1.3110994100570679 
