15

C -1.417928695678711 0.8752552270889282 -0.057253263890743256 
C -2.0409116744995117 -0.44712647795677185 -0.16944879293441772 
C -0.4888048470020294 -0.22886621952056885 0.12169204652309418 
N 0.6170610785484314 -0.3251013159751892 -0.7968730330467224 
C 1.8037455081939697 -1.0204660892486572 -0.22911038994789124 
C 1.5892512798309326 0.41765740513801575 -0.037571221590042114 
H -1.338140606880188 1.4935911893844604 -0.9537023305892944 
H -0.23290756344795227 1.928672194480896 1.1601837873458862 
H -2.462722063064575 -0.968406617641449 0.6942158341407776 
H -2.4787511825561523 -0.750698983669281 -1.1252063512802124 
H -0.2708098590373993 -0.49927714467048645 1.169866681098938 
H 1.695173978805542 -1.6985435485839844 0.6236549615859985 
H 2.476109027862549 -1.3739067316055298 -1.014349102973938 
H 2.087719440460205 1.3133889436721802 -0.39916402101516724 
H 0.5297922492027283 1.688927173614502 1.2040431499481201 
