9

N -1.0917543172836304 -0.3422894775867462 0.23378169536590576 
C -0.2613382041454315 0.6271567940711975 1.0609872341156006 
C 0.8864675164222717 0.6429417133331299 0.2523362934589386 
C 0.8021571040153503 -0.4093386232852936 -0.7049388885498047 
N -0.4512544572353363 -0.835453987121582 -0.9015293717384338 
H -1.7685378789901733 -0.9448817372322083 0.700482964515686 
H -1.4159246683120728 0.7815952897071838 0.29960206151008606 
H 1.6782547235488892 1.385123372077942 0.2949853837490082 
H 1.6219298839569092 -0.9048534035682678 -1.235707402229309 
