11

C 0.305881142616272 1.4288837909698486 0.1572149395942688 
C -0.38922256231307983 -0.38659924268722534 -1.4117897748947144 
O 0.03328671678900719 -0.9709889888763428 -2.3633675575256348 
C -0.8773507475852966 -0.9678047895431519 -0.037048496305942535 
O -1.9909435510635376 -0.8838422894477844 0.464614599943161 
N 0.4200853407382965 -0.7126047611236572 0.7263039350509644 
H 0.9550794363021851 1.5952651500701904 -0.6949318647384644 
H -0.7427682876586914 1.718543291091919 0.08438476920127869 
H 0.7261989116668701 1.516515851020813 1.152500867843628 
H 0.3590211868286133 -1.1543490886688232 1.6728668212890625 
H 1.200732707977295 -1.1830189228057861 0.2492515593767166 
