11

C -1.2786180973052979 0.9114007949829102 0.3018903136253357 
N -0.09623724967241287 0.08028482645750046 0.0915658175945282 
C 1.0299339294433594 0.4638529121875763 -0.43990668654441833 
O 1.924798846244812 -0.48117882013320923 -0.4242091178894043 
C 0.7075031399726868 -1.6484887599945068 0.06038836017251015 
O 0.8647647500038147 -2.2073488235473633 1.0980623960494995 
H -1.0714284181594849 1.9657403230667114 0.03856524080038071 
H -2.1157350540161133 0.5760710835456848 -0.3279654085636139 
H -1.589191198348999 0.8670949935913086 1.3481990098953247 
H 1.2778267860412598 1.4523249864578247 -0.8323689103126526 
H 0.34638258814811707 -1.9797533750534058 -0.9142208695411682 
