12

C -1.8366528749465942 -0.20687073469161987 -0.07115533947944641 
N -0.38974934816360474 -0.050960294902324677 -0.16741196811199188 
C 1.4498388767242432 -1.2241168022155762 -0.4261944890022278 
C 2.1849658489227295 -0.16985753178596497 -0.03408568352460861 
N 1.6173865795135498 1.0783193111419678 0.28014007210731506 
C 0.31100720167160034 1.0273756980895996 0.24039435386657715 
H -2.1598687171936035 -0.9804190397262573 -0.7785883545875549 
H -2.1650218963623047 -0.48902156949043274 0.9411237239837646 
H -2.3236656188964844 0.7361774444580078 -0.35639047622680664 
H 0.21718983352184296 -1.177391767501831 -0.15736576914787292 
H 3.273329973220825 -0.2469589114189148 0.030658023431897163 
H -0.2608819007873535 1.9124791622161865 0.5327648520469666 
