10

O 0.35980716347694397 -1.658848524093628 -0.7633658051490784 
C -0.724012017250061 -1.3778131008148193 -0.29354214668273926 
O -0.9693148732185364 -0.3455520272254944 0.5537083148956299 
C 0.13797849416732788 0.5073235630989075 0.8012078404426575 
C 0.015615631826221943 2.0123167037963867 -0.04069047048687935 
C 0.5418840646743774 1.2406327724456787 -0.8907598853111267 
H -1.6641075611114502 -1.945946216583252 -0.43049147725105286 
H 0.006171997636556625 0.9190425872802734 1.812746286392212 
H 1.0920265913009644 -0.03383820876479149 0.7861679792404175 
H 1.2039504051208496 0.6826823949813843 -1.5349806547164917 
