16

C -1.5273404121398926 0.38618627190589905 0.7416980266571045 
C -0.43409550189971924 -0.6029064059257507 0.3896881639957428 
O -0.3247266411781311 -1.7220518589019775 1.2090212106704712 
C 1.2958056926727295 0.4958913028240204 0.5230007767677307 
N 1.4292362928390503 0.8945865631103516 -0.7667489647865295 
C 0.3274458050727844 0.5348643660545349 -1.6607959270477295 
C 0.05404588207602501 -0.7645378708839417 -0.9531892538070679 
H -2.216202974319458 -0.09032043069601059 1.4457805156707764 
H -1.1298795938491821 1.2904140949249268 1.2167428731918335 
H -2.108036756515503 0.6955063939094543 -0.1416616141796112 
H 0.6426951289176941 -1.9260315895080566 1.3337738513946533 
H 1.3187355995178223 1.2737393379211426 1.3144029378890991 
H 1.790234088897705 -0.4444392919540405 0.8263131380081177 
H 0.6761019229888916 0.3657805025577545 -2.690718173980713 
H -0.532699704170227 1.203514575958252 -1.654796838760376 
H 0.7386809587478638 -1.590195894241333 -1.132510781288147 
