13

C 0.6060505509376526 -0.4155440032482147 1.6730704307556152 
C -0.4731726348400116 -0.32735079526901245 0.6225862503051758 
N -1.074681043624878 0.9279456734657288 0.09685328602790833 
C -0.10631819814443588 0.2450498640537262 -0.7081478834152222 
C 1.033437728881836 0.7519891858100891 -1.4965177774429321 
C 0.19583678245544434 0.030746612697839737 -2.3047523498535156 
H 1.292981505393982 0.43307390809059143 1.5978821516036987 
H 0.1800469607114792 -0.4539072513580322 2.6818723678588867 
H 1.1987487077713013 -1.3305293321609497 1.5367027521133423 
H -1.248481273651123 -1.1057167053222656 0.6597346067428589 
H -0.6358650922775269 1.780147910118103 0.4772968292236328 
H -0.6339066028594971 -0.6680045127868652 -1.575235366821289 
H -0.334677129983902 0.13209949433803558 -3.2613449096679688 
