8

O -0.6117314100265503 -1.0353940725326538 -1.6137501001358032 
C -0.8349600434303284 -0.4044916331768036 -0.6406816244125366 
C 0.9196794629096985 0.6179192066192627 0.2906446158885956 
C 0.2185613512992859 -0.38499686121940613 0.9065322279930115 
N -0.6439512372016907 -1.1536169052124023 1.2064985036849976 
H -1.5923703908920288 0.32661527395248413 -0.36362627148628235 
H 0.7095517516136169 1.6785590648651123 0.47922438383102417 
H 1.8352208137512207 0.3554060161113739 -0.26484185457229614 
