23

C -1.6710747480392456 2.247809648513794 -0.8418529629707336 
C -0.6549392342567444 1.6633366346359253 0.14370056986808777 
C -0.048280082643032074 0.3029889166355133 -0.31924185156822205 
C -1.129739761352539 -0.7516915202140808 -0.5494904518127441 
C 1.0590718984603882 0.03239608183503151 0.6947537660598755 
C 2.1922247409820557 -1.712969183921814 -0.5583098530769348 
C 0.6026102304458618 -0.769829273223877 1.8841885328292847 
H -2.5582120418548584 1.6078888177871704 -0.9412339925765991 
H -1.2203251123428345 2.375563621520996 -1.8357185125350952 
H -2.0295934677124023 3.225522756576538 -0.4930264949798584 
H 0.1668022722005844 2.378385066986084 0.2969324588775635 
H -1.1447182893753052 1.509440541267395 1.1284689903259277 
H 0.40484729409217834 0.5145485401153564 -1.3095470666885376 
H -1.7149527072906494 -0.5481464862823486 -1.4563145637512207 
H -0.715023398399353 -1.7570163011550903 -0.6868131160736084 
H -1.82914400100708 -0.815677285194397 0.3025859296321869 
H 2.0692973136901855 -0.6477372050285339 -0.012677579186856747 
H 1.4897561073303223 -2.5053951740264893 -0.24529099464416504 
H 3.206843614578247 -2.0143511295318604 -0.2801772952079773 
H 2.0969362258911133 -1.515329122543335 -1.6400266885757446 
H -0.18183134496212006 -1.54397714138031 1.7374260425567627 
H 0.16244404017925262 -0.03467759117484093 2.577423334121704 
H 1.4470001459121704 -1.241083025932312 2.4042415618896484 
