12

O -1.017903208732605 -1.6449742317199707 1.5897297859191895 
C -1.378983497619629 -1.3767908811569214 0.34209123253822327 
C -0.3389066457748413 -0.6427623629570007 -0.4700089693069458 
C 0.289401650428772 0.5249917507171631 0.27161815762519836 
C 1.1549237966537476 1.477501630783081 -0.47104260325431824 
O -0.15705160796642303 1.8518506288528442 -0.05498984456062317 
H -1.9384557008743286 -2.229681968688965 1.1312978267669678 
H 0.43117740750312805 -1.3791489601135254 -0.7882620692253113 
H -0.8355100154876709 -0.2838822603225708 -1.3911925554275513 
H 0.5153483152389526 0.3661022186279297 1.3324556350708008 
H 1.9695299863815308 1.9776734113693237 0.05567408353090286 
H 1.3064297437667847 1.3591209650039673 -1.5473706722259521 
