12

C -1.0890867710113525 0.7708442211151123 -0.027681665495038033 
C -0.4907328486442566 -0.5879589319229126 0.2657301425933838 
N 0.10291120409965515 -1.3583844900131226 -0.860071063041687 
C 1.326383352279663 -0.9648299217224121 -0.15203480422496796 
C 1.926827073097229 0.2581230700016022 -0.6424452662467957 
N 2.6126890182495117 1.1339445114135742 -1.0364121198654175 
H -0.3983463644981384 1.3933197259902954 -0.61177659034729 
H -2.0191595554351807 0.648711621761322 -0.6020917296409607 
H -1.3291467428207397 1.3027551174163818 0.902474582195282 
H -1.0863593816757202 -1.2547436952590942 0.9032109379768372 
H -0.03276349604129791 -0.794489324092865 -1.7122541666030884 
H 0.4918714165687561 -0.502177894115448 0.9709227085113525 
