12

O 1.3385584354400635 -1.8775100708007812 0.9383386373519897 
C 0.7080026865005493 -1.4194223880767822 -0.6246299147605896 
C -0.13094907999038696 -0.2895892858505249 -0.24574531614780426 
N 0.19956670701503754 0.556605875492096 0.7698056697845459 
N -0.5634945631027222 1.6573972702026367 0.45005714893341064 
C -1.3872623443603516 1.380476474761963 -0.6215543150901794 
N -1.2141084671020508 0.11916346102952957 -0.990548849105835 
H 0.9356019496917725 -1.1807503700256348 1.5077873468399048 
H 0.6246140003204346 -2.5060482025146484 0.5010398626327515 
H 1.5888980627059937 -1.1246190071105957 -1.2076258659362793 
H -0.28380826115608215 2.559645652770996 0.8112767338752747 
H -1.8156191110610962 2.124650239944458 -1.2882012128829956 
