9

C 0.31459248065948486 -1.5643818378448486 -0.26346081495285034 
C -0.7606790661811829 -1.1825395822525024 -0.9988046288490295 
C -0.4246489703655243 -0.10813170671463013 -0.04003932327032089 
C -0.05981263518333435 1.2948884963989258 0.07117627561092377 
O -1.197063684463501 0.6824807524681091 0.8016809225082397 
H 1.3314441442489624 -1.9806716442108154 -0.35427889227867126 
H 0.42265379428863525 -0.7659803628921509 0.8055487871170044 
H -0.354778528213501 1.9705142974853516 -0.7555437088012695 
H 0.7282925248146057 1.6538218259811401 0.7337213158607483 
