13

C 0.7962419390678406 1.134722352027893 -0.4420150816440582 
C 0.3482847809791565 -0.1539836823940277 0.23543964326381683 
O 1.367167592048645 -1.143981695175171 0.280132532119751 
C -1.0343098640441895 -0.7074482440948486 -0.17248715460300446 
C -0.4354950487613678 -0.10717854648828506 1.5031706094741821 
H 1.650283694267273 1.563806176185608 0.10008565336465836 
H -0.017681118100881577 1.8687639236450195 -0.4820072650909424 
H 1.1117087602615356 0.9377033710479736 -1.4787695407867432 
H 1.383497953414917 -1.592026948928833 -0.5888646245002747 
H -1.6645188331604004 -0.02134821005165577 -0.7478440999984741 
H -0.9585469365119934 -1.7112866640090942 -0.6053570508956909 
H -1.562518835067749 -0.9082199335098267 0.8639256358146667 
H -0.9841139912605286 0.8404781818389893 1.5345906019210815 
