12

N -0.8347820043563843 -1.4396404027938843 1.0419594049453735 
C -0.22793936729431152 -0.41937556862831116 0.3480532467365265 
N -1.1618857383728027 0.202079176902771 -0.6762481927871704 
C -0.5540557503700256 1.3040311336517334 -0.9546822905540466 
C 0.690752387046814 1.3275710344314575 -0.1688586175441742 
C 1.634000539779663 0.2768945097923279 -0.5117309093475342 
N 1.0732038021087646 -0.8717601895332336 -0.28905242681503296 
H -1.2465145587921143 -2.2116858959198 0.5201260447502136 
H -1.1581366062164307 -1.2571535110473633 1.9784300327301025 
H -0.972518265247345 2.1198604106903076 -1.5241222381591797 
H 0.07954712212085724 0.5525461435317993 0.9914418458938599 
H 2.678328275680542 0.416633278131485 -0.7553161382675171 
