14

C 0.49800875782966614 -0.679737389087677 1.4086464643478394 
C 0.6179408431053162 -0.7438518404960632 -0.560102641582489 
C -0.6298319101333618 -0.08054129779338837 -1.1605385541915894 
C -1.2088302373886108 0.6212274432182312 0.06424359232187271 
C 0.19044896960258484 0.5387302041053772 0.7117746472358704 
C 0.7381690740585327 0.43503323197364807 -1.3119369745254517 
H 1.483657717704773 -0.8324329257011414 1.8408929109573364 
H -0.286885142326355 -1.3824032545089722 1.672601580619812 
H 1.0159777402877808 -1.7581895589828491 -0.6578012108802795 
H -1.2041479349136353 -0.5324166417121887 -1.9774657487869263 
H -1.5168871879577637 1.666770100593567 -0.1001535952091217 
H -1.9748884439468384 0.08417440950870514 0.6401128172874451 
H 0.7764272689819336 1.443596601486206 0.8679444193840027 
H 1.500840663909912 1.2200411558151245 -1.4382178783416748 
