14

O 1.8276653289794922 0.9404287934303284 -1.016866683959961 
C 0.8682006001472473 0.16748696565628052 -1.2691659927368164 
N -0.6243234872817993 0.8943449854850769 -1.0298223495483398 
C -1.150970458984375 0.9129061102867126 0.20914459228515625 
C 0.44486555457115173 -0.2878400385379791 1.2264639139175415 
C 0.652396559715271 -0.9297306537628174 -0.09609978646039963 
C 0.20165300369262695 -2.0775434970855713 0.29733777046203613 
H 0.6949002146720886 -0.31650200486183167 -2.248525619506836 
H -0.3676998019218445 1.8114651441574097 -1.401055932044983 
H -1.1779766082763672 1.8414702415466309 0.7829555869102478 
H -1.905676007270813 0.18038374185562134 0.460538387298584 
H -0.19583721458911896 -0.6350733637809753 2.0301451683044434 
H 1.271844744682312 0.34677088260650635 1.5275977849960327 
H -0.5390422344207764 -2.848567008972168 0.5273533463478088 
