13

O -0.21316279470920563 1.09146249294281 -1.7228883504867554 
C -0.12574008107185364 -0.18526074290275574 -1.522796630859375 
C 0.4849309027194977 -0.6503633260726929 0.43243616819381714 
C 1.0673484802246094 0.6099244356155396 0.6185986995697021 
C 1.0552520751953125 1.8442738056182861 0.3480045795440674 
C -0.7113574743270874 -1.0295292139053345 1.136837124824524 
C -1.7381960153579712 -1.426867127418518 1.6650282144546509 
H 0.3828701078891754 1.7134153842926025 -0.849586546421051 
H -1.051698923110962 -0.7450190782546997 -1.377895712852478 
H 0.6930229663848877 -0.7619709968566895 -2.0044641494750977 
H 1.1933337450027466 -1.461977481842041 0.2353726029396057 
H 1.458827018737793 2.783585548400879 0.6983562707901001 
H -2.4954302310943604 -1.7816740274429321 2.3429975509643555 
