7

O -1.2869044542312622 -0.010678158141672611 0.9024010896682739 
C 0.7147778868675232 -0.3489131033420563 -0.6201801300048828 
C 0.3322467505931854 0.9541971683502197 -0.45432522892951965 
N -0.2977232038974762 1.8532605171203613 0.0070482767187058926 
H -1.2350887060165405 -0.7814756631851196 1.5180588960647583 
H 0.38788163661956787 -0.8831939101219177 -1.474027395248413 
H 1.384809970855713 -0.7831970453262329 0.1210244745016098 
