13

C 1.251940131187439 0.6235710382461548 0.488518625497818 
O 0.9621486067771912 -0.5712000131607056 1.067260980606079 
C 0.1805657297372818 -1.2889286279678345 0.10925035923719406 
C -0.9112960696220398 -0.27599647641181946 -0.3093108832836151 
O -1.0325926542282104 1.4920315742492676 -1.602463960647583 
H 1.4870635271072388 1.4130808115005493 1.202063798904419 
H 1.7893424034118652 0.6086310148239136 -0.46792295575141907 
H -0.18173229694366455 0.7422950863838196 -0.37275266647338867 
H 0.7953450083732605 -1.5685824155807495 -0.7624040842056274 
H -0.21301282942295074 -2.195220708847046 0.5903015732765198 
H -1.4870593547821045 -0.6152627468109131 -1.1700191497802734 
H -1.5723031759262085 -0.04256412759423256 0.534503698348999 
H -1.7172491550445557 1.9424643516540527 -1.059388279914856 
