11

N 0.13073712587356567 -0.04290259629487991 1.6191251277923584 
C 0.8157174587249756 -0.86189204454422 1.071972370147705 
C 0.8046415448188782 -1.4181016683578491 -0.6466650366783142 
O -0.05900713428854942 -0.671811580657959 -1.2249575853347778 
C -1.1050689220428467 1.0072542428970337 -0.18188075721263885 
C -0.2400629222393036 1.2588903903961182 0.9359675645828247 
N 0.28823572397232056 2.378255605697632 0.8802726864814758 
H 1.874759554862976 -1.2508760690689087 -0.8879009485244751 
H 0.5839971899986267 -2.4824676513671875 -0.48446497321128845 
H -1.0471442937850952 1.5990216732025146 -1.0981593132019043 
H -2.0468053817749023 0.48463016748428345 0.016691207885742188 
