12

O 0.5570096373558044 -1.1583043336868286 1.4168957471847534 
C 0.3432515859603882 -0.7266151905059814 0.08526087552309036 
C -1.115904450416565 -0.3164035677909851 -0.2837132513523102 
C -0.8483510613441467 1.1940429210662842 -0.550070583820343 
O 0.05323030799627304 1.5350767374038696 0.5090373754501343 
C 0.8827832341194153 0.6657714247703552 -0.2605915367603302 
H 0.42788413166999817 -0.3890811502933502 1.9656834602355957 
H 0.759211540222168 -1.5056583881378174 -0.5713369250297546 
H -1.8099340200424194 -0.43339261412620544 0.5613812804222107 
H -1.5108615159988403 -0.8386357426643372 -1.1660906076431274 
H 0.3391288220882416 0.9608665704727173 -1.380586862564087 
H 1.9225517511367798 1.0123333930969238 -0.3258689343929291 
