15

C 0.058994464576244354 2.0204625129699707 0.44630688428878784 
C 0.6300758123397827 0.016430867835879326 -0.3604871332645416 
C 0.9929746389389038 -1.3152694702148438 -0.9471726417541504 
C 0.9325233697891235 -1.1222188472747803 0.6070096492767334 
O -0.834270179271698 0.6880289912223816 -0.7240282297134399 
C -1.8432931900024414 -0.12398333847522736 -0.1869957000017166 
O -1.9708962440490723 -1.3463481664657593 -0.26919764280319214 
H -0.5172803997993469 1.8719055652618408 1.3510026931762695 
H 1.1436227560043335 1.9828389883041382 0.5618605017662048 
H -0.2793808877468109 2.7984139919281006 -0.2337644398212433 
H 0.22080017626285553 -1.9147274494171143 -1.4095730781555176 
H 1.9826704263687134 -1.3241868019104004 -1.4260870218276978 
H 0.14257846772670746 -1.6730499267578125 1.1054259538650513 
H 1.8987382650375366 -1.0924917459487915 1.1122627258300781 
H -2.5578575134277344 0.534195601940155 0.37343740463256836 
