14

C 1.4295666217803955 -1.1472930908203125 -0.7609103322029114 
N 1.657017707824707 0.021621795371174812 0.14282087981700897 
C 0.30840250849723816 -0.3213898241519928 -0.3000892102718353 
C -0.6655198931694031 0.5797299146652222 -1.091380000114441 
C -1.0282503366470337 0.966629147529602 1.0538196563720703 
C -0.9670013785362244 -0.4607597887516022 0.5004879236221313 
O -1.7635997533798218 -0.2316918671131134 -0.7456522583961487 
H 1.7251272201538086 -1.082454800605774 -1.8107761144638062 
H 1.6075743436813354 -2.125408172607422 -0.2904995381832123 
H 2.002502918243408 0.833607017993927 -0.4040478467941284 
H -0.853664755821228 1.5964769124984741 -0.33730292320251465 
H -0.19274190068244934 1.306856632232666 1.6832245588302612 
H -2.0055370330810547 1.403959035873413 1.2867469787597656 
H -1.2538763284683228 -1.339882731437683 1.0735584497451782 
