12

O 2.1117641925811768 0.3653600513935089 0.7049829959869385 
C 0.9278486967086792 -0.12154994159936905 0.3115663528442383 
C 0.023647425696253777 -1.2757240533828735 -0.05683983489871025 
C -1.1277480125427246 -0.20400285720825195 -0.164996936917305 
C -0.2326923906803131 0.9640872478485107 0.3788597583770752 
C 0.9578837752342224 1.0904159545898438 -0.4299094080924988 
H -0.16688120365142822 -1.9731864929199219 0.7689862251281738 
H 0.294744610786438 -1.8405396938323975 -0.9596209526062012 
H -1.5347654819488525 -0.0661105141043663 -1.1748653650283813 
H -1.9501651525497437 -0.40998244285583496 0.5298622250556946 
H -0.5556644797325134 1.6315816640853882 1.1815427541732788 
H 1.4653260707855225 1.4190599918365479 -1.3287768363952637 
