17

C 2.2565195560455322 0.14251171052455902 -0.4663076400756836 
C 0.822431206703186 0.034273743629455566 0.0007029298576526344 
C -1.493172526359558 0.38312822580337524 1.4694242477416992 
C -1.495271921157837 0.6220274567604065 0.01161221507936716 
C -1.1528295278549194 -0.6612173318862915 -0.664426863193512 
C 0.04205920174717903 -1.2657513618469238 0.02915271744132042 
C -0.10340146720409393 1.0353916883468628 -0.3684326410293579 
H 2.618525266647339 1.177696704864502 -0.3388238549232483 
H 2.9166862964630127 -0.5167396068572998 0.11958397924900055 
H 2.3655755519866943 -0.10636388510465622 -1.5308945178985596 
H -1.306607961654663 1.2238221168518066 2.1318366527557373 
H -2.0120513439178467 -0.4729374647140503 1.9147952795028687 
H -2.3221404552459717 1.203953742980957 -0.41960465908050537 
H -1.6418967247009277 -1.0778716802597046 -1.557370662689209 
H 0.5079572796821594 -2.0231330394744873 -0.6341503858566284 
H -0.15205958485603333 -1.7436914443969727 1.0075958967208862 
H 0.14967767894268036 2.0449013710021973 -0.7046928405761719 
