10

N 0.42975226044654846 -1.965019941329956 -0.6902618408203125 
C -0.6552714705467224 0.5208926200866699 0.043445196002721786 
C 0.339889794588089 1.5368635654449463 0.06982731074094772 
C 0.7549165487289429 2.6825027465820312 0.370773583650589 
C -0.6015830039978027 -0.5555249452590942 0.9145053625106812 
N -0.5032421946525574 -1.6071395874023438 1.5032081604003906 
H 0.9185261726379395 -2.594726085662842 -1.3558121919631958 
H -0.5579516291618347 -2.1905879974365234 -0.882979154586792 
H -1.5758447647094727 0.6731654405593872 -0.5127202272415161 
H 1.4508081674575806 3.4995741844177246 0.5400137901306152 
