19

C -1.8900470733642578 -0.8929036855697632 -0.5694299936294556 
C -0.715517520904541 -0.05684170126914978 -0.030935076996684074 
C -1.20875883102417 1.1586174964904785 0.7735867500305176 
C 0.16612546145915985 -0.9123218059539795 0.8517780900001526 
O 1.093287467956543 -1.857397198677063 0.1625390350818634 
C 1.6203231811523438 -0.8999080657958984 0.9710332155227661 
C 2.3595848083496094 0.8084806799888611 -0.3974258601665497 
H -2.5230257511138916 -0.28665390610694885 -1.232601284980774 
H -1.5252130031585693 -1.7598079442977905 -1.1363592147827148 
H -2.5199906826019287 -1.2606825828552246 0.2547938823699951 
H -0.11536698043346405 0.2927113473415375 -0.8792942762374878 
H -1.7877545356750488 0.836373507976532 1.6521631479263306 
H -1.861878514289856 1.789954423904419 0.15552599728107452 
H -0.3674997091293335 1.7698901891708374 1.1265465021133423 
H -0.3711108863353729 -1.3912991285324097 1.6805816888809204 
H 2.54101300239563 -0.2768137454986572 0.8361783027648926 
H 2.154907703399658 0.2908700704574585 -1.3364118337631226 
H 3.4178194999694824 1.067883014678955 -0.2746681869029999 
H 1.6889524459838867 1.6407629251480103 -0.1778668612241745 
