12

C 0.6269652843475342 1.1385343074798584 0.19875605404376984 
C 0.07852716743946075 -0.2173926830291748 0.4725969433784485 
C -1.4690314531326294 0.06991910934448242 0.43657758831977844 
O -2.2061471939086914 -0.4912031292915344 1.221694827079773 
C 0.4312220513820648 -1.2067177295684814 -0.5356979966163635 
O 1.096606731414795 -0.75185227394104 -1.5666435956954956 
H 1.0395857095718384 1.7072765827178955 1.0208210945129395 
H 1.4642099142074585 0.1645641028881073 -1.221687912940979 
H 0.15880879759788513 1.7095258235931396 -0.6207197308540344 
H 0.3031087815761566 -0.5603930950164795 1.5024914741516113 
H -1.7763060331344604 0.699084997177124 -0.41574743390083313 
H 0.25245004892349243 -2.2613461017608643 -0.49244120717048645 
