15

C -1.8621245622634888 0.12987110018730164 0.12557685375213623 
C -0.6387699246406555 -0.64728844165802 -0.18051278591156006 
C 0.7094396948814392 -0.013906238600611687 0.3743838369846344 
C 1.9582879543304443 -0.566707968711853 -0.3229261040687561 
C 0.5545051693916321 1.4826663732528687 0.29895585775375366 
N -0.555277407169342 1.9888887405395508 0.21822021901607513 
H -2.277491331100464 0.048294585198163986 1.1337699890136719 
H -1.5197609663009644 2.2244904041290283 0.03789185732603073 
H -2.6139724254608154 0.22147820889949799 -0.6618009805679321 
H -0.6647074222564697 -1.6546874046325684 0.26931169629096985 
H -0.5192762613296509 -0.7738915085792542 -1.2667831182479858 
H 0.7811055779457092 -0.22502247989177704 1.4566174745559692 
H 1.9932658672332764 -1.6606531143188477 -0.22953249514102936 
H 1.9446099996566772 -0.3141767084598541 -1.392367959022522 
H 2.8729188442230225 -0.15045543015003204 0.11700668931007385 
