13

C 0.5360862016677856 -0.015184951014816761 -1.1366841793060303 
C -0.5651005506515503 -0.8675022125244141 -0.49336740374565125 
O 1.2366325855255127 -1.0398563146591187 0.7404733896255493 
C 1.1466625928878784 0.2548803687095642 0.2697690427303314 
C 0.002506426302716136 0.7800498604774475 1.0836671590805054 
O -1.1286450624465942 1.2564899921417236 0.5031095147132874 
C -1.4613428115844727 -0.10451262444257736 0.2628984749317169 
H 0.15657629072666168 0.8621394038200378 -1.683825135231018 
H 1.205418348312378 -0.6216515898704529 -1.7510247230529785 
H -0.82940274477005 -1.8661909103393555 -0.8392611742019653 
H 2.0622336864471436 0.8741009831428528 0.31057408452033997 
H 0.09895950555801392 0.8926640748977661 2.161787986755371 
H -2.4605846405029297 -0.40542593598365784 0.5718828439712524 
