14

C 0.4556395709514618 -1.8395256996154785 -0.7144680023193359 
C 0.02308323048055172 -1.503349781036377 0.6262149810791016 
C -0.08921778947114944 0.0586731992661953 0.43487828969955444 
C 0.622776210308075 1.3042268753051758 0.1490240842103958 
C -0.7206407785415649 1.7911760807037354 -0.39717379212379456 
O -1.372908115386963 0.5951722264289856 0.17514903843402863 
H 1.4936693906784058 -1.6631864309310913 -0.9925979375839233 
H -0.2781434655189514 -1.8612710237503052 -1.5229541063308716 
H -0.988656222820282 -1.8533648252487183 0.9140307903289795 
H 0.7440689206123352 -1.7266626358032227 1.420127511024475 
H 1.6755274534225464 1.5252649784088135 -0.048540279269218445 
H 0.38289016485214233 0.7106078863143921 1.421027660369873 
H -0.8061805367469788 1.7534593343734741 -1.496454119682312 
H -1.1419081687927246 2.7087793350219727 0.031736090779304504 
