16

C -0.6140198111534119 -1.125318169593811 0.0950746163725853 
C -1.075381875038147 0.34409263730049133 0.3268356919288635 
C -0.31151673197746277 1.3153585195541382 -0.43618249893188477 
O 1.0017890930175781 1.1847285032272339 -0.6578607559204102 
C 1.610394835472107 0.07298322767019272 0.05902526527643204 
C 0.8794645667076111 -1.2084633111953735 -0.33385780453681946 
H -1.241859793663025 -1.5865758657455444 -0.6789766550064087 
H -0.7717208862304688 -1.6989918947219849 1.0183005332946777 
H -2.136256217956543 0.9097779393196106 0.13647818565368652 
H -1.1192495822906494 0.5313255786895752 1.4049885272979736 
H -2.245774507522583 2.236294984817505 0.26204732060432434 
H -0.7617915868759155 2.1110846996307373 -1.0177584886550903 
H 1.532450795173645 0.26749202609062195 1.1401698589324951 
H 2.6625845432281494 0.08008716255426407 -0.24257893860340118 
H 1.3797547817230225 -2.0754144191741943 0.12196788191795349 
H 0.9678293466567993 -1.3211127519607544 -1.4238638877868652 
