10

N 0.12834015488624573 0.9838440418243408 -1.5720316171646118 
C 0.3471008837223053 0.42365190386772156 -0.4048663079738617 
C -0.8081789612770081 -0.13510364294052124 0.18787755072116852 
C 0.23100437223911285 -0.9299591183662415 1.0208934545516968 
O 1.3430057764053345 -0.23958729207515717 0.24922645092010498 
H 0.7173517346382141 1.770999789237976 -1.907958984375 
H -1.5433257818222046 0.45501431822776794 0.7521247267723083 
H -1.0640844106674194 0.33848270773887634 -1.2670146226882935 
H 0.3612251281738281 -0.6611331701278687 2.087423324584961 
H 0.28756096959114075 -2.0062098503112793 0.8543259501457214 
