14

C -1.7109112739562988 0.2268342673778534 0.7507545351982117 
C -0.4924164116382599 -0.3519473075866699 0.11720465123653412 
C -0.2829087972640991 -1.5670716762542725 -0.4388229548931122 
O 1.0068974494934082 -1.715651035308838 -0.9166655540466309 
C 1.6844485998153687 -0.5696606040000916 -0.610484778881073 
C 0.7810897827148438 0.41801655292510986 -0.03759542480111122 
N 0.9131243824958801 1.695060133934021 0.5540487766265869 
H -2.5534136295318604 -0.4768922030925751 0.738134503364563 
H -2.0114173889160156 1.1522071361541748 0.2374335676431656 
H -1.493110179901123 0.5103171467781067 1.7911462783813477 
H -0.9228549003601074 -2.431549072265625 -0.5768685340881348 
H 2.671290397644043 -0.4759494364261627 -1.0457113981246948 
H 0.6651883125305176 1.0259294509887695 -1.0065170526504517 
H 1.8900349140167236 1.9967554807662964 0.40926337242126465 
