10

O 1.3475934267044067 -1.1326009035110474 1.4973180294036865 
C 1.2986161708831787 -0.458275705575943 0.5145556330680847 
C 0.07186832278966904 -0.005532189272344112 -0.5655295848846436 
C -1.2595003843307495 -0.4212445914745331 -0.4437674582004547 
N 0.15566258132457733 1.359200358390808 -0.027696458622813225 
H 1.6033207178115845 0.7499334812164307 0.42867526412010193 
H 0.4974597096443176 -0.06467663496732712 -1.5713361501693726 
H -1.8284958600997925 -0.8532211184501648 -1.268229603767395 
H -1.7659403085708618 -0.3375154435634613 0.518137514591217 
H -0.21722635626792908 1.3442827463150024 0.9385708570480347 
