21

C -1.801952600479126 -1.3042153120040894 0.19982029497623444 
C -0.4094829261302948 -0.7907829880714417 0.5147997736930847 
C 0.03965972736477852 -1.0369609594345093 1.9349888563156128 
C 0.5824390053749084 -0.7059646248817444 -0.5812195539474487 
C 0.45391398668289185 0.8017542958259583 -1.2386631965637207 
C 1.5914372205734253 1.5653927326202393 -1.6878505945205688 
C 0.08340391516685486 1.6774249076843262 -0.06192251667380333 
H -1.8450247049331665 -2.399184226989746 0.3092457354068756 
H -2.095991849899292 -1.083725929260254 -0.8407833576202393 
H -2.5559284687042236 -0.86098712682724 0.8680747151374817 
H -0.5982263684272766 0.7320932745933533 0.5126835107803345 
H 0.09200536459684372 -2.1135895252227783 2.1466064453125 
H 1.0354795455932617 -0.6115884184837341 2.1324384212493896 
H -0.6518545746803284 -0.5957479476928711 2.667271137237549 
H 0.3806425929069519 -1.3973280191421509 -1.4120090007781982 
H 1.6176398992538452 -0.8347513675689697 -0.244880810379982 
H -0.35446789860725403 0.781771719455719 -1.9771589040756226 
H 1.556296467781067 2.2347090244293213 -2.546494245529175 
H 2.536006212234497 1.513010859489441 -1.1407337188720703 
H 0.8843392729759216 1.8579199314117432 0.6685041189193726 
H -0.5403345227241516 2.570749044418335 -0.22271642088890076 
