17

C -0.4021909236907959 -1.2625672817230225 -2.1110527515411377 
N -0.1334945410490036 -0.9039820432662964 -0.7259838581085205 
C -0.5888639688491821 0.435977965593338 -0.37283843755722046 
O -1.7893376350402832 0.7224984765052795 -0.6108790636062622 
N -0.07676270604133606 0.8013697862625122 0.980609118938446 
C -0.1027035042643547 -0.12195227295160294 2.1166131496429443 
C 1.0619021654129028 1.5063780546188354 0.6517244577407837 
H -1.3988287448883057 -1.7396845817565918 -2.1417834758758545 
H -0.44798538088798523 -0.36749693751335144 -2.7740936279296875 
H 0.34748679399490356 -1.9487333297729492 -2.505038022994995 
H 0.7705872654914856 -1.149223804473877 -0.3592327833175659 
H 0.26036810874938965 -1.1235753297805786 1.862619161605835 
H 0.5068632960319519 0.2745122015476227 2.949090003967285 
H -1.1435227394104004 -0.21140219271183014 2.4668188095092773 
H 1.9448515176773071 1.3956855535507202 1.2878509759902954 
H 0.8597350120544434 2.512624740600586 0.23888683319091797 
H 0.33189550042152405 1.1795707941055298 -0.9533095359802246 
