11

C -1.4979091882705688 -0.3244878649711609 -0.12401830404996872 
C -0.06744755804538727 -0.05494409799575806 0.2118736207485199 
C 0.572148859500885 1.1365859508514404 0.5578569769859314 
O 1.8249107599258423 1.306952953338623 0.4555578827857971 
C 1.6524603366851807 -0.7268419861793518 -0.4494593143463135 
N 0.8122280240058899 -1.3322060108184814 0.19343522191047668 
H -1.9075332880020142 -1.1603449583053589 0.4657435119152069 
H -1.6480629444122314 -0.5685477256774902 -1.188917875289917 
H -2.0906827449798584 0.5780286192893982 0.08506391942501068 
H -0.06769900768995285 1.9262657165527344 0.991392195224762 
H 2.408017873764038 -0.7373906970024109 -1.2245198488235474 
