14

O -1.062429666519165 -1.11787748336792 1.3757513761520386 
C -0.9176743030548096 -1.1296881437301636 -0.001779573387466371 
C -1.2149454355239868 0.3062705993652344 -0.478458434343338 
C 0.09171555191278458 1.0378614664077759 -0.12368932366371155 
C 1.1163264513015747 -0.017830295488238335 -0.513055145740509 
O 2.3477606773376465 -0.03627551719546318 0.1048194020986557 
H -0.9034906625747681 -2.0330069065093994 1.675594687461853 
H 0.24439072608947754 -1.289732813835144 -0.35838738083839417 
H -1.402003288269043 0.29993945360183716 -1.5619102716445923 
H -2.0982208251953125 0.7208313941955566 0.023640546947717667 
H 0.2649487853050232 2.0381879806518555 -0.5641345977783203 
H 0.09790009260177612 1.1495530605316162 0.9736064076423645 
H 1.2471132278442383 -0.17545226216316223 -1.5884013175964355 
H 2.2096285820007324 0.22252145409584045 1.036271572113037 
