16

C -0.17982198297977448 -1.4384336471557617 -1.1297318935394287 
C -0.5331732034683228 0.027085157111287117 -1.1764479875564575 
C 1.1543757915496826 0.9697609543800354 0.012517922557890415 
C 0.031173503026366234 0.8065130710601807 1.027604103088379 
O 0.26729750633239746 -0.17394648492336273 2.029787302017212 
C -1.187210202217102 0.4942242503166199 0.12225689738988876 
H 0.3875594735145569 -1.7316983938217163 -2.0259859561920166 
H -1.1545034646987915 -1.9573137760162354 -1.163840413093567 
H 0.34648990631103516 -1.8294703960418701 -0.24316491186618805 
H 0.584551215171814 0.7618758082389832 -1.1301732063293457 
H 1.9713165760040283 0.23740117251873016 0.04062391445040703 
H 1.515486478805542 1.9905742406845093 -0.18509645760059357 
H -0.12534362077713013 1.710667371749878 1.6344588994979858 
H 0.5504478216171265 -0.9927521347999573 1.6184239387512207 
H -1.8248546123504639 -0.26329344511032104 0.6180265545845032 
H -1.803790807723999 1.3888062238693237 -0.04925914481282234 
