18

C 0.4125266373157501 2.0492334365844727 -0.9893178343772888 
C -0.3483416438102722 0.739205002784729 -0.7594341039657593 
N 0.4992760121822357 -0.17234079539775848 -0.003582524135708809 
C 0.9705272316932678 -1.412039041519165 -0.5827903747558594 
C -0.2687971591949463 -1.8087823390960693 0.14373880624771118 
C -0.15871010720729828 -0.4768926501274109 1.779087781906128 
O -1.4858306646347046 -0.6066275835037231 2.121492624282837 
H 0.7213359475135803 2.4831395149230957 -0.02337600290775299 
H -0.2073230892419815 2.780430316925049 -1.522369146347046 
H 1.308902382850647 1.8559160232543945 -1.5898616313934326 
H -0.7228057384490967 0.30459335446357727 -1.694115161895752 
H -1.270792007446289 0.9401494860649109 -0.16367968916893005 
H 1.955094575881958 -1.7341431379318237 -0.2412259578704834 
H 0.9121183753013611 -1.3810505867004395 -1.6812119483947754 
H -1.1074987649917603 -1.6693726778030396 -0.5647203922271729 
H 0.516118586063385 -1.187039852142334 2.2536942958831787 
H 0.17783240973949432 0.5464715957641602 1.9960932731628418 
H -1.9036331176757812 -1.2508505582809448 1.5215778350830078 
