10

N 2.347365379333496 -0.1822836548089981 0.7139989733695984 
C 1.3040484189987183 -0.39059731364250183 0.06902427226305008 
N -0.8597458004951477 1.12135648727417 -0.9466991424560547 
N -0.7485898733139038 1.7664800882339478 -1.890722393989563 
O -1.6809455156326294 -0.8781277537345886 2.0514657497406006 
C -1.5204447507858276 -0.17228639125823975 1.1496191024780273 
C 0.09903403371572495 -0.5698257088661194 -0.40580233931541443 
H 3.1010866165161133 0.3050348460674286 0.21636708080768585 
H -1.502784252166748 1.0084006786346436 -0.04421881586313248 
H -0.23337632417678833 -1.38591730594635 -1.0401694774627686 
