16

C -0.6673766374588013 0.504318356513977 1.0039162635803223 
C 0.6291738152503967 -0.3292911946773529 1.175434947013855 
C 0.9980956315994263 -1.141161561012268 -0.09779951721429825 
O 1.0408693552017212 -0.32694628834724426 -1.2773957252502441 
C -0.9008685946464539 0.2755357027053833 -1.4568907022476196 
C -0.6468692421913147 1.159468412399292 -0.3750750720500946 
H -1.5451750755310059 -0.1679065227508545 1.0984402894973755 
H -0.7538865804672241 1.25169038772583 1.8022773265838623 
H 0.5434759855270386 -1.012926697731018 2.0372514724731445 
H 1.467573881149292 0.34230268001556396 1.401310682296753 
H 0.2938406765460968 -1.9771395921707153 -0.24065864086151123 
H 2.009317398071289 -1.5730692148208618 0.020146798342466354 
H -0.8539589643478394 0.6150808930397034 -2.491448163986206 
H -1.3667097091674805 -0.6996391415596008 -1.2764959335327148 
H -0.87031090259552 2.222618579864502 -0.4986225366592407 
H 0.6228092908859253 0.8570652008056641 -0.8243914246559143 
