12

O 1.926815390586853 1.4083571434020996 -0.45155924558639526 
C 1.0866204500198364 0.6089723706245422 -0.15903116762638092 
C 0.8426340818405151 -0.8628951907157898 -0.46482598781585693 
C -0.2910873591899872 -0.9515746831893921 0.5153796672821045 
C -1.2792595624923706 1.0016515254974365 -0.22831907868385315 
O 0.03272704407572746 0.8706191778182983 0.7650747895240784 
H 0.5422782897949219 -1.03343665599823 -1.5030241012573242 
H 1.7173566818237305 -1.4804507493972778 -0.2128317654132843 
H -1.272145390510559 -1.2769931554794312 0.1937473714351654 
H -0.030481303110718727 -1.2065860033035278 1.545492172241211 
H -2.068040609359741 0.9462515711784363 0.5349702835083008 
H -1.192604899406433 2.046527624130249 -0.5660079717636108 
