16

C 2.197579860687256 -0.18655163049697876 0.08725526183843613 
C 0.8106023073196411 0.2582990527153015 -0.32840150594711304 
C -0.6522676348686218 -1.0674256086349487 -0.09176040440797806 
C -1.801545262336731 -0.08933575451374054 0.0357365645468235 
C -1.212912678718567 1.3661361932754517 0.26115718483924866 
C 0.12063509970903397 1.6120214462280273 0.1698605716228485 
H 2.28767466545105 -0.24855715036392212 1.179577350616455 
H 2.945713996887207 0.5284806489944458 -0.2784062623977661 
H 2.4237470626831055 -1.1748175621032715 -0.3365142345428467 
H 0.6302428245544434 0.24999700486660004 -1.4020558595657349 
H -0.5869552493095398 -1.6369729042053223 -1.0196223258972168 
H -0.4554602801799774 -1.6977195739746094 0.7822162508964539 
H -2.4821550846099854 -0.34530404210090637 0.8603777885437012 
H -2.39936900138855 -0.06746193766593933 -0.8890653252601624 
H -1.9464607238769531 2.160159111022949 0.4098244309425354 
H 0.1263100504875183 0.24415452778339386 0.5853915214538574 
