14

C -0.3475111722946167 -0.9779182076454163 1.9053080081939697 
C -0.8112474679946899 0.21066845953464508 1.0611381530761719 
O 0.3085159361362457 0.6827247142791748 0.24171490967273712 
C 0.35205304622650146 0.31959640979766846 -1.0392136573791504 
O -0.34266799688339233 -0.7119052410125732 -1.4774248600006104 
C 1.1634705066680908 0.8880835175514221 -2.0630109310150146 
H -0.05770484730601311 -1.812901496887207 1.2599862813949585 
H -1.1597322225570679 -1.3115495443344116 2.5611019134521484 
H 0.5211852788925171 -0.7085946202278137 2.519717216491699 
H -1.0926218032836914 1.057840347290039 1.6888843774795532 
H -1.640306830406189 -0.06487377732992172 0.4042578637599945 
H 0.5887766480445862 1.45069420337677 -2.816107988357544 
H 2.0982208251953125 1.3721425533294678 -1.7927138805389404 
H 0.41957032680511475 -0.39400720596313477 -2.4536373615264893 
