14

C 1.3230936527252197 -0.8153414130210876 0.025680894032120705 
C 0.8235021233558655 0.36514273285865784 0.6954445242881775 
O 1.4313340187072754 1.5802477598190308 0.4927175045013428 
C -0.3553866446018219 0.2255905717611313 -0.5666706562042236 
O -0.2457701414823532 1.1989820003509521 -1.3668856620788574 
C -1.678120493888855 -0.2332175374031067 0.05694600194692612 
H 1.0987741947174072 -1.81424880027771 0.40607118606567383 
H 2.081392288208008 -0.7228930592536926 -0.7509340047836304 
H 0.08740241825580597 -0.8549703359603882 -1.0377826690673828 
H 0.38473767042160034 0.21935413777828217 1.688291311264038 
H 0.9490459561347961 1.924694538116455 -0.3262963593006134 
H -2.4090027809143066 -0.4139401912689209 -0.7411777973175049 
H -2.047910451889038 0.5775386095046997 0.6982006430625916 
H -1.5589187145233154 -1.1442679166793823 0.6565700769424438 
