17

C -0.618547797203064 -1.8828866481781006 0.8543279767036438 
C 0.22209885716438293 -0.6663728952407837 0.17965181171894073 
C 0.05021890252828598 0.6612944602966309 0.9788299202919006 
C 0.9472644329071045 1.500643253326416 0.06960456818342209 
C 0.4106026589870453 1.8907947540283203 -1.1315131187438965 
C -0.4461839497089386 -0.47188901901245117 -1.1250760555267334 
O 1.5168324708938599 -0.9354994297027588 0.17864379286766052 
H -0.09415355324745178 -2.8057878017425537 0.5833432674407959 
H -1.6680757999420166 -1.9536781311035156 0.5333256721496582 
H -0.5776302218437195 -1.7304661273956299 1.941339373588562 
H 0.4402315020561218 0.5680294632911682 2.0025410652160645 
H -0.9731869697570801 1.0691089630126953 1.0143309831619263 
H 1.9904013872146606 1.6595268249511719 0.32910922169685364 
H 0.9912033081054688 2.226360559463501 -1.999097466468811 
H -0.6716875433921814 2.01997709274292 -1.207713007926941 
H -1.5155458450317383 -0.2544063925743103 -1.1745010614395142 
H -0.0038415314629673958 -0.8947498798370361 -2.027146577835083 
