13

C -1.0106370449066162 -0.04107547551393509 -1.097538948059082 
C -0.18345020711421967 -0.2156250923871994 0.19767141342163086 
C -0.41624242067337036 0.8008267283439636 1.2095818519592285 
N -0.07346738874912262 -1.514573097229004 0.7163052558898926 
C 1.3887141942977905 0.11981973797082901 -0.15875525772571564 
O 1.7449086904525757 0.6340118050575256 -1.210618495941162 
H -1.038809895515442 1.0018869638442993 -1.4373656511306763 
H -2.0151116847991943 -0.4291786253452301 -0.9059785604476929 
H -0.5394564867019653 -0.6494274735450745 -1.8797152042388916 
H -0.6452656984329224 1.8390158414840698 0.9756293892860413 
H -0.13975447416305542 0.5952568054199219 2.2432563304901123 
H 0.8826096653938293 -1.8587565422058105 0.7221992611885071 
H 2.0459628105163574 -0.2821817100048065 0.6253281235694885 
