15

C -1.9708905220031738 1.166367769241333 -0.5353390574455261 
C -0.5383243560791016 0.6882988810539246 -0.37330496311187744 
O -0.2330733984708786 0.35375964641571045 0.9886030554771423 
C -0.23489126563072205 -0.7075930833816528 -0.6968517303466797 
O 1.4831366539001465 -1.8975751399993896 0.3448445200920105 
C 2.313211679458618 -1.1603467464447021 0.9408911466598511 
O 2.1684625148773193 0.06437793374061584 1.2803823947906494 
H -2.669948101043701 0.4239083528518677 -0.12913300096988678 
H -2.2067363262176514 1.336039662361145 -1.5952061414718628 
H -2.1029913425445557 2.1090986728668213 0.012117402628064156 
H 0.18042118847370148 1.403337001800537 -0.8020411729812622 
H 0.8931438326835632 0.3147258460521698 1.1331616640090942 
H 0.5769608020782471 -0.9996725916862488 -1.3514755964279175 
H -0.9597132802009583 -1.4694997072219849 -0.42505043745040894 
H 3.289389133453369 -1.6181224584579468 1.206076979637146 
