10

O -1.1211533546447754 1.557208776473999 0.34917789697647095 
C -0.33420515060424805 0.56032395362854 0.9192683696746826 
C -0.2389916479587555 -0.7780340313911438 0.19203343987464905 
O -0.3192788064479828 -0.1956636756658554 -1.4526675939559937 
C 1.0282913446426392 0.07973700016736984 0.5219432711601257 
C 0.8764073848724365 -0.385232150554657 -0.8341121077537537 
H -1.0396348237991333 1.4291199445724487 -0.6216309666633606 
H -0.5256542563438416 0.5330528616905212 1.9912525415420532 
H -0.5842151045799255 -1.8090853691101074 0.1914418488740921 
H 1.5836905241012573 -1.0900152921676636 -1.2872446775436401 
