18

C -1.663156509399414 -0.3380907475948334 1.5818673372268677 
C -1.39638090133667 -0.7404929995536804 0.12394679337739944 
C -0.40308845043182373 0.1330493539571762 -0.6114872694015503 
C 1.0989066362380981 0.0671376883983612 -0.12630189955234528 
C 2.192840337753296 -0.2903837561607361 -1.1336888074874878 
C 0.6926686763763428 1.429583191871643 0.06709129363298416 
N 0.46635809540748596 2.6746997833251953 0.01280346792191267 
H -0.7638095021247864 -0.4324609935283661 2.202388048171997 
H -2.026412010192871 0.6923427581787109 1.6401790380477905 
H -2.444267511367798 -0.9942588210105896 2.0127525329589844 
H -1.0432746410369873 -1.7924922704696655 0.09436032921075821 
H -2.343996286392212 -0.7284181714057922 -0.4467335343360901 
H -0.4525721073150635 0.11731506884098053 -1.7004599571228027 
H -0.492068886756897 1.8512167930603027 -0.38440996408462524 
H 1.2105369567871094 -0.47138211131095886 0.8247604370117188 
H 2.0245635509490967 0.2289741039276123 -2.0875113010406494 
H 3.1793503761291504 -0.029151922091841698 -0.7446891069412231 
H 2.163801670074463 -1.3771870136260986 -1.3248673677444458 
