11

C -1.706313967704773 0.1554311215877533 -0.01211223378777504 
C -0.20396652817726135 0.10362143069505692 0.03367333859205246 
O 0.5025771856307983 1.1855067014694214 0.18315382301807404 
N 0.5602618455886841 -0.9480036497116089 -0.06972043216228485 
C 1.9995859861373901 0.2513968348503113 -0.005669411737471819 
O 2.76298451423645 0.20720522105693817 0.9043380618095398 
H -2.0357301235198975 0.7811672687530518 -0.8522869348526001 
H -2.088958978652954 0.6136322617530823 0.9094054102897644 
H -2.1406235694885254 -0.8458920121192932 -0.11899174004793167 
H 0.19505496323108673 -1.8847594261169434 -0.24805106222629547 
H 2.155130624771118 0.380693256855011 -1.0822029113769531 
