13

N 2.5050840377807617 0.44256144762039185 -0.2778703272342682 
C 1.254922866821289 -0.06855573505163193 0.01990508660674095 
O 0.4088643789291382 0.7174969911575317 0.8070541024208069 
C -0.9046926498413086 0.8884125351905823 0.16608262062072754 
C -1.5677249431610107 -0.5098505616188049 0.20606175065040588 
C -0.6059466600418091 -1.4459106922149658 -0.433840811252594 
N 0.594033420085907 -1.1308002471923828 -0.696318507194519 
H 2.686758041381836 0.14025744795799255 -1.270020604133606 
H 2.165539503097534 -0.6421119570732117 0.6000358462333679 
H -1.438975214958191 1.6327171325683594 0.7778232097625732 
H -0.8020952343940735 1.2585363388061523 -0.8541715145111084 
H -1.7510278224945068 -0.7824352383613586 1.2588449716567993 
H -2.5447399616241455 -0.5003174543380737 -0.30358588695526123 
