7

C -0.6747924089431763 -0.2332906424999237 -0.1376131922006607 
C 0.7312857508659363 -0.08835060894489288 -0.04816960543394089 
O 1.0541057586669922 1.1050002574920654 0.32673975825309753 
H -1.1641020774841309 -0.20230615139007568 0.8454256653785706 
H -0.2278570681810379 1.217187762260437 0.09305959939956665 
H -1.1291803121566772 -0.9789990186691284 -0.7986924052238464 
H 1.5322012901306152 -0.8017775416374207 -0.2815347909927368 
