16

C -1.103200078010559 0.8127170205116272 -0.5421156287193298 
C -0.8353438377380371 -0.1640545278787613 0.5720007419586182 
C -0.3414778411388397 -1.5796221494674683 0.25142887234687805 
O 1.0755926370620728 -1.4445770978927612 0.15160395205020905 
C 1.2377139329910278 -0.1309884637594223 0.6942815184593201 
C 1.5208240747451782 0.9281907081604004 -0.21845196187496185 
H -1.675337791442871 1.7169889211654663 -0.32999134063720703 
H -2.0098698139190674 -0.10364504903554916 0.05208367854356766 
H -1.1902886629104614 0.41362592577934265 -1.5551422834396362 
H -1.1205781698226929 0.10293355584144592 1.5884780883789062 
H -0.7529484033584595 -1.9622647762298584 -0.7012876868247986 
H -0.629562258720398 -2.2863717079162598 1.0508931875228882 
H 1.4878203868865967 -0.08955017477273941 1.7561731338500977 
H 1.9826291799545288 0.6176038980484009 -1.1629213094711304 
H 1.9854689836502075 1.8178963661193848 0.21789570152759552 
H 0.3900567591190338 1.285191535949707 -0.6227386593818665 
