17

C -1.0573824644088745 -1.6500163078308105 0.09784071892499924 
C -1.2322688102722168 -0.47200629115104675 0.9401925802230835 
N -0.10168888419866562 -0.037405211478471756 1.8760547637939453 
C -0.445430189371109 0.7892882823944092 0.714425802230835 
C 0.2822168171405792 0.8367459177970886 -0.6458227634429932 
C 1.4180731773376465 1.7712626457214355 -0.7156030535697937 
N 0.8865402936935425 -0.5029883980751038 -0.8590144515037537 
H -0.8534536957740784 -2.622807741165161 0.5546190142631531 
H 0.8089041113853455 -1.4105851650238037 -0.28941333293914795 
H -1.6674062013626099 -1.682785987854004 -0.8172196745872498 
H -2.193239688873291 -0.36628860235214233 1.475016713142395 
H 0.7063294649124146 -0.5837299823760986 1.6457436084747314 
H -0.8977583646774292 1.757912278175354 0.9546158313751221 
H -0.470824658870697 1.081970453262329 -1.4232455492019653 
H 2.16023588180542 1.7116074562072754 0.08203461021184921 
H 1.7301961183547974 2.1235461235046387 -1.7033065557479858 
H 0.9269570112228394 -0.7437195181846619 -1.886918067932129 
