16

N -1.5743438005447388 1.4648618698120117 -1.145693302154541 
C -0.7669312357902527 0.4443973898887634 -0.8605170845985413 
C -1.0248363018035889 -0.6902080178260803 0.12656161189079285 
C 0.13807407021522522 -0.7197758555412292 1.1410315036773682 
C 1.4303431510925293 -0.5264848470687866 0.3138687312602997 
C 1.096516489982605 0.5788057446479797 -0.654304027557373 
O 0.2904360294342041 0.15972846746444702 -1.7705554962158203 
H -2.159841537475586 1.701913595199585 -0.33118703961372375 
H -2.0114493370056152 -0.5282405018806458 0.5950132012367249 
H -1.0669877529144287 -1.6315498352050781 -0.44490739703178406 
H 0.15708518028259277 -1.6438804864883423 1.738599181175232 
H 0.016311829909682274 0.11464135348796844 1.850500464439392 
H 1.6909829378128052 -1.4532510042190552 -0.21794632077217102 
H 2.2856109142303467 -0.25842350721359253 0.9626644849777222 
H -0.30074062943458557 1.5992704629898071 -0.4480505883693695 
H 1.7997695207595825 1.3881953954696655 -0.8550779819488525 
