10

O 0.4345850944519043 0.9502936005592346 -1.9130561351776123 
C 0.028089148923754692 0.7893258929252625 -0.6282681226730347 
C 0.6877250075340271 -0.3908761143684387 0.04088897630572319 
C 0.22862455248832703 -0.7052686214447021 1.3844345808029175 
C -0.2245812714099884 -0.814262330532074 2.522625207901001 
C -0.9586420655250549 1.1153898239135742 -2.0225038528442383 
N -2.0251471996307373 1.5411807298660278 -2.340402603149414 
H 0.5813218951225281 -1.2959154844284058 -0.5971805453300476 
H 1.7746707201004028 -0.14630964398384094 0.027964239940047264 
H -0.5266458988189697 -1.04355788230896 3.525498151779175 
