15

C -1.6751705408096313 1.002465009689331 -0.045065078884363174 
C -1.831073522567749 -0.5256845951080322 -0.1286228597164154 
C -0.5289294719696045 0.09429961442947388 0.19151723384857178 
N 0.6511605978012085 0.009937174618244171 -0.45887067914009094 
C 1.69114351272583 -1.0335615873336792 -0.4361169934272766 
C 1.9057730436325073 0.4134359359741211 -0.16150987148284912 
H -1.7154330015182495 1.5674538612365723 -0.9787609577178955 
H -2.120593786239624 1.5112797021865845 0.8115754723548889 
H -2.380246639251709 -1.0209858417510986 0.6748199462890625 
H -1.9814237356185913 -0.9695858955383301 -1.1152392625808716 
H 0.5472128391265869 0.37188103795051575 1.760921835899353 
H 1.6914664506912231 -1.7060128450393677 0.43102237582206726 
H 1.8677171468734741 -1.5148648023605347 -1.4035208225250244 
H 2.4986095428466797 1.216638445854187 -0.5885132551193237 
H 1.3395204544067383 0.5429787635803223 1.5636039972305298 
