14

C 1.3745492696762085 -1.4113798141479492 -1.2496789693832397 
O 1.0166382789611816 -0.13586165010929108 -0.7045094966888428 
C -0.306957870721817 0.12307652086019516 -0.6165108680725098 
C -0.0636787936091423 1.1806265115737915 1.7848597764968872 
C -0.8258897662162781 0.7372392416000366 0.6877629160881042 
O -2.06821346282959 1.3683109283447266 0.508521318435669 
H 2.466984510421753 -1.4262371063232422 -1.3222767114639282 
H 0.9376924633979797 -1.552815556526184 -2.2507126331329346 
H 1.029868483543396 -2.2195546627044678 -0.5846928358078003 
H -0.9708658456802368 -0.6180580854415894 -1.088674783706665 
H -0.34405913949012756 2.0943758487701416 2.2993979454040527 
H 0.790238618850708 0.6044624447822571 2.1309871673583984 
H -0.9579675793647766 -0.4048048257827759 0.886018693447113 
H -2.110915184020996 1.5869380235671997 -0.44598761200904846 
