9

O -0.5212720036506653 0.6757258176803589 -0.34844955801963806 
C -1.2166675329208374 -0.3917495906352997 0.936218798160553 
C 0.04574332758784294 -1.0183552503585815 1.1813416481018066 
C 0.7522858381271362 -0.30617865920066833 0.332143634557724 
C 1.978528618812561 -0.07384083420038223 -0.2931295335292816 
N 3.0055930614471436 0.1462944597005844 -0.8234358429908752 
H -0.42044854164123535 1.5857586860656738 0.018388992175459862 
H -1.9815138578414917 -0.9273945689201355 0.3647686839103699 
H -1.6328920125961304 0.3049308955669403 1.6728721857070923 
