15

C 0.3124968409538269 -0.3378393352031708 -2.0173492431640625 
C 0.583483099937439 0.03210078552365303 -0.5479139089584351 
O 0.22736473381519318 1.2987219095230103 -0.18683385848999023 
C -1.2220568656921387 1.4046167135238647 1.3274327516555786 
N -1.0150458812713623 2.423388957977295 1.9539639949798584 
C -0.3399235010147095 -0.6591807007789612 0.4193952977657318 
N 0.07897264510393143 -1.4119155406951904 1.4417070150375366 
H 0.9490820169448853 0.2835652232170105 -2.6607284545898438 
H 0.5308536887168884 -1.3912192583084106 -2.235567331314087 
H -0.7339310646057129 -0.11334791034460068 -2.2649900913238525 
H 1.6445142030715942 -0.23062977194786072 -0.2734341621398926 
H -0.3322376310825348 3.142146348953247 1.6620471477508545 
H -1.3969500064849854 -0.7165337800979614 0.1688842624425888 
H 1.072690725326538 -1.3886200189590454 1.676650047302246 
H -0.35931310057640076 -2.3352537155151367 1.5367364883422852 
