10

N 1.8445093631744385 0.10322295129299164 -0.3343276381492615 
C 0.5057254433631897 -0.027063440531492233 -0.048466362059116364 
N -0.18035370111465454 -1.156612515449524 -0.14103730022907257 
N -1.4752994775772095 -0.7299081087112427 0.07699333876371384 
C -1.6051334142684937 0.5650911927223206 0.4480239450931549 
N -0.27646714448928833 1.0579854249954224 0.3686430752277374 
H 2.306920051574707 0.8258951902389526 0.20864230394363403 
H 2.346369504928589 -0.7802454829216003 -0.3459470868110657 
H -2.2149298191070557 -1.4235554933547974 0.03691103681921959 
H -1.2047806978225708 1.5943593978881836 -0.27002230286598206 
