13

N -1.6580175161361694 -0.8119785785675049 -0.2282409518957138 
C -1.0515632629394531 0.03587677329778671 -1.0527172088623047 
O -0.9098139405250549 0.07275960594415665 -2.258742094039917 
C -0.0048368750140070915 1.186106562614441 -0.19806413352489471 
C 0.9680401682853699 0.45414483547210693 0.5750570297241211 
O 0.7887430787086487 -1.4566802978515625 0.30511581897735596 
H -1.758719801902771 -0.3900296092033386 0.7012000679969788 
H -0.27511391043663025 -1.4453253746032715 0.11379162967205048 
H -0.7167720198631287 1.7450120449066162 0.41652911901474 
H 0.4238239824771881 1.7906508445739746 -0.9970072507858276 
H 2.0153920650482178 0.46170228719711304 0.27640455961227417 
H 0.8126826286315918 0.3016040027141571 1.6414039134979248 
H 1.1559392213821411 -1.6008492708206177 -0.5930784940719604 
