17

C -0.39864233136177063 0.40048760175704956 1.5872564315795898 
C -0.7890561819076538 0.33374589681625366 0.10794001817703247 
C -0.8322853446006775 -1.1187106370925903 -0.4407367408275604 
C 0.6207456588745117 -1.355309009552002 -0.8246731162071228 
C 1.3211065530776978 -0.16053198277950287 -1.1698094606399536 
C 0.31927111744880676 0.938843846321106 -0.8384263515472412 
O 0.8849474787712097 2.1492960453033447 -0.32633259892463684 
H -1.171275019645691 -0.061719126999378204 2.2223734855651855 
H 0.5387335419654846 -0.13557982444763184 1.796983242034912 
H -0.2725801467895508 1.4485571384429932 1.8995379209518433 
H -1.7393262386322021 0.8517080545425415 -0.03840714693069458 
H -1.2235013246536255 -1.855818748474121 0.26949596405029297 
H -1.4484647512435913 -1.202092170715332 -1.3523404598236084 
H 1.0048508644104004 -2.3564937114715576 -1.0338971614837646 
H 1.5922362804412842 -0.9428755640983582 -0.11843856424093246 
H -0.14979469776153564 1.204419732093811 -1.806502103805542 
H 1.743034839630127 1.8620719909667969 0.06597626209259033 
