17

C 1.9158397912979126 0.28230544924736023 -0.22444596886634827 
C 0.4152878522872925 0.047874439507722855 -0.050977230072021484 
C -0.11729023605585098 -1.2212529182434082 0.7000569105148315 
C -1.3753036260604858 -1.1253596544265747 -0.19006648659706116 
C -0.4546470046043396 -0.4942898750305176 -1.2493131160736084 
C -1.6959874629974365 1.0031733512878418 0.6600093841552734 
C -0.3836030066013336 1.204661250114441 0.5312111973762512 
H 2.096993923187256 1.1578744649887085 -0.8562938570976257 
H 2.385195732116699 0.4620653986930847 0.7521504759788513 
H 2.390604257583618 -0.5981072187423706 -0.6759740710258484 
H -0.33764249086380005 -1.1860641241073608 1.775713562965393 
H 0.46969074010849 -2.114372491836548 0.44468334317207336 
H -2.1928904056549072 -0.20134864747524261 0.2836936414241791 
H -0.9378011226654053 0.20289988815784454 -1.9352704286575317 
H 0.0832318589091301 -1.2799745798110962 -1.80527925491333 
H -2.4172163009643555 1.7461495399475098 1.0145368576049805 
H 0.1555371880531311 2.1137654781341553 0.8255647420883179 
