11

O -2.5638041496276855 -0.4570811986923218 0.842435896396637 
C -1.3419675827026367 -0.2594741880893707 0.6328420042991638 
N -0.8199483156204224 -1.4733868837356567 0.24042905867099762 
C 0.9623385071754456 -0.3785807490348816 -0.801755428314209 
C 0.744240939617157 0.7726495265960693 0.09506826847791672 
C -0.49381983280181885 0.933803141117096 0.6142826080322266 
H 0.4274385869503021 -1.3356176614761353 -0.2463848739862442 
H 1.9849779605865479 -0.7295180559158325 -0.9510567784309387 
H 0.4067164659500122 -0.3451801836490631 -1.7565664052963257 
H 1.5990197658538818 1.3626652956008911 0.4518575668334961 
H -0.905192494392395 1.9097211360931396 0.878848135471344 
