17

C -0.5826543569564819 -0.959984302520752 1.6394809484481812 
C -0.868537187576294 -0.19024527072906494 0.34284913539886475 
C -0.12741154432296753 -0.7137753963470459 -0.9101337194442749 
C -0.17281121015548706 1.2305011749267578 -1.2354627847671509 
C 1.4529659748077393 0.35457950830459595 -1.2457458972930908 
O 1.0437204837799072 1.553836464881897 -1.8522287607192993 
C -0.38699427247047424 1.2918719053268433 0.30737656354904175 
H -0.9005847573280334 -2.0094830989837646 1.554039716720581 
H -1.1172455549240112 -0.522068202495575 2.4952292442321777 
H 0.48372113704681396 -0.9307841658592224 1.889402985572815 
H -1.9404616355895996 -0.18574531376361847 0.1228029876947403 
H 0.5790672898292542 -1.5256602764129639 -0.6419571042060852 
H -0.7266164422035217 -1.0381762981414795 -1.7648203372955322 
H 1.9746543169021606 -0.3298347592353821 -1.9199877977371216 
H 1.945332407951355 0.4613557755947113 -0.2757810950279236 
H -1.1446069478988647 2.04600191116333 0.5429092049598694 
H 0.48846209049224854 1.467610239982605 0.9520266652107239 
