10

O 2.1686978340148926 0.14464709162712097 -0.512422502040863 
C 0.8411779403686523 0.05188802257180214 -0.31625688076019287 
N 0.2273264080286026 -1.1362396478652954 -0.30524933338165283 
N -1.0906778573989868 -0.7675930857658386 -0.09880204498767853 
C -1.3362791538238525 0.7037346363067627 0.13215263187885284 
C -0.0470871701836586 1.158555030822754 -0.1356525421142578 
H 2.5025954246520996 -0.7703770995140076 -0.6154689192771912 
H -1.6899316310882568 -1.4718410968780518 0.33575719594955444 
H -1.7927076816558838 -0.17507639527320862 -0.8880408406257629 
H 0.2449360191822052 2.2016124725341797 -0.19081780314445496 
