14

C -1.5383223295211792 -0.6508786082267761 0.4531014561653137 
C -0.1615186631679535 0.017602600157260895 0.5312774181365967 
C 0.995850682258606 -0.5874648690223694 1.1163136959075928 
O 1.9782391786575317 -0.7199831604957581 0.2165900468826294 
C 1.5957105159759521 -0.07902302592992783 -0.971609890460968 
C 0.42583513259887695 0.6291970014572144 -0.7128162384033203 
N -0.296109139919281 1.735176682472229 -0.9747331738471985 
H -1.6893274784088135 -1.1372722387313843 -0.5264788866043091 
H -2.3227179050445557 0.11929014325141907 0.5527048707008362 
H -1.664851188659668 -1.400704026222229 1.2378876209259033 
H 1.0407365560531616 -1.2301104068756104 1.9924579858779907 
H 2.010214328765869 -0.5227490663528442 -1.8781938552856445 
H -0.5564826130867004 1.3571172952651978 0.48277175426483154 
H 0.18274249136447906 2.469801664352417 -1.5192731618881226 
