15

O -0.693334698677063 -1.407485008239746 1.1179559230804443 
C -0.6514039635658264 -0.1375395804643631 1.695136547088623 
C -0.738985538482666 0.6946157813072205 0.46322327852249146 
O -0.9899789690971375 -0.8216234445571899 -1.1909841299057007 
C 0.22047293186187744 -0.13964754343032837 -1.501190423965454 
C 1.4045979976654053 -0.1792416274547577 -0.5769060850143433 
C 0.3887273669242859 0.9590771794319153 -0.4403938055038452 
H -0.8374319076538086 -1.3679652214050293 -0.2765846252441406 
H -1.5079257488250732 0.023300861939787865 2.3687944412231445 
H 0.26775631308555603 0.07964494079351425 2.2738986015319824 
H -1.6948754787445068 1.144840955734253 0.17534683644771576 
H 0.38004782795906067 -0.009893311187624931 -2.5741422176361084 
H 1.4435158967971802 -0.9439598917961121 0.19348196685314178 
H 2.3694143295288086 0.12573359906673431 -0.9926417469978333 
H 0.639403223991394 1.9801422357559204 -0.734994649887085 
