13

C 1.517325758934021 -0.10945188999176025 0.122414231300354 
O 0.8726135492324829 0.8644774556159973 0.9682000279426575 
C -0.4983528256416321 0.4872044622898102 0.9392008781433105 
C -1.2026149034500122 0.5760452151298523 -0.45813944935798645 
O -0.2658118009567261 0.15525224804878235 -1.4341284036636353 
C 0.3402441143989563 -0.8627912402153015 -0.5455166697502136 
C -0.7742096781730652 -0.9086169600486755 0.5657273530960083 
H 2.122548818588257 -0.8006033897399902 0.7222627401351929 
H 2.1487021446228027 0.41980797052383423 -0.6052109599113464 
H -1.0472321510314941 0.9802224040031433 1.7666016817092896 
H -1.8599334955215454 1.425702691078186 -0.6752419471740723 
H 0.5663731098175049 -1.7856619358062744 -1.0936297178268433 
H -1.9196525812149048 -0.441586971282959 -0.27254000306129456 
