13

C 1.6733803749084473 0.4880806803703308 0.47722816467285156 
C 0.33922669291496277 0.020099669694900513 0.12821249663829803 
O 0.27269721031188965 -1.2054803371429443 0.8419879674911499 
C -1.4028081893920898 -0.7727582454681396 -0.26189082860946655 
C -0.3982529640197754 -0.1745126098394394 -1.1875884532928467 
O -1.0799593925476074 1.1454039812088013 -1.1301648616790771 
C -1.273305058479309 0.5947991609573364 0.18604564666748047 
H 1.760180950164795 1.2462947368621826 1.2436492443084717 
H 1.4012360572814941 -0.7802717685699463 1.2643651962280273 
H 2.474902868270874 0.4464387595653534 -0.26451292634010315 
H -1.9169933795928955 -1.71438729763031 -0.05756903439760208 
H -0.012168046087026596 -0.4963163435459137 -2.171321153640747 
H -1.8381376266479492 1.2026094198226929 0.9315584301948547 
