14

O 0.7559863328933716 -1.065098524093628 1.7180876731872559 
C 0.4688889682292938 0.16820350289344788 1.2705000638961792 
C 1.1142603158950806 0.39255255460739136 -0.3741030693054199 
C 0.0015879747224971652 -0.06687162816524506 -1.294448733329773 
C -1.1008238792419434 -0.7168943881988525 -0.46337637305259705 
C -0.8600538372993469 0.46370285749435425 0.49382680654525757 
N -0.12227272242307663 1.2699676752090454 -0.6051522493362427 
H 1.381320834159851 -0.6974509954452515 0.590319037437439 
H 0.8215962052345276 1.039853811264038 1.8381401300430298 
H 2.06494140625 0.7820742130279541 -0.7578962445259094 
H 0.148219034075737 -0.13508369028568268 -2.3727526664733887 
H -2.062080144882202 -0.6465474963188171 -0.9876632690429688 
H -0.932245135307312 -1.7323273420333862 -0.08645936846733093 
H -1.6793256998062134 0.9439196586608887 1.0309780836105347 
