12

C -0.1017712727189064 0.32253962755203247 1.2581738233566284 
O 0.11663191765546799 -0.980704665184021 1.0231423377990723 
C 0.4333927035331726 -1.2518718242645264 -0.3881984055042267 
C 0.41925811767578125 0.11424846202135086 -1.068091630935669 
O 1.3804543018341064 1.013277292251587 -0.5364710092544556 
C 0.0021793844643980265 1.067610263824463 -0.03454712778329849 
H -1.0747716426849365 0.5400832295417786 1.9521770477294922 
H -1.9290372133255005 0.5853881239891052 1.3589705228805542 
H 1.4311048984527588 -1.7080638408660889 -0.44936907291412354 
H -0.326987624168396 -1.936579942703247 -0.7875416278839111 
H 0.15245196223258972 0.20939034223556519 -2.1222755908966064 
H -0.5029054284095764 2.0246829986572266 -0.20596960186958313 
