14

C 1.4693869352340698 0.3534925580024719 -0.21956318616867065 
C 0.3172524869441986 1.3285801410675049 -0.2776181995868683 
C -1.6048542261123657 -0.0605037547647953 -0.5270099639892578 
O -1.075297236442566 -1.3205866813659668 -0.2501712441444397 
C -0.8915100693702698 -1.664269208908081 1.0701243877410889 
O -0.8332736492156982 -0.8974931240081787 2.006338357925415 
H 1.572483777999878 -0.08117615431547165 0.7842420339584351 
H 1.3447948694229126 -0.4691784381866455 -0.9291200041770935 
H 2.4156601428985596 0.863717794418335 -0.46758440136909485 
H 0.2168833315372467 1.83675217628479 -1.241420030593872 
H 0.2696625292301178 2.039827585220337 0.5616602897644043 
H -0.892552375793457 0.8223457932472229 -0.004513892810791731 
H -1.5314829349517822 0.0076162368059158325 -1.620455265045166 
H -0.7771533727645874 -2.759124755859375 1.1150912046432495 
