10

O -2.363086700439453 -0.7326486706733704 0.019852401688694954 
C -1.1758906841278076 -0.5665521025657654 0.1980028748512268 
O -0.19354377686977386 -1.5458468198776245 0.44197508692741394 
C 0.9636670351028442 -0.7418362498283386 0.5303824543952942 
C 0.900716245174408 0.22136180102825165 -0.657742440700531 
C -0.29675909876823425 0.6528259515762329 0.16617216169834137 
H 0.3626466691493988 0.34186115860939026 1.280763864517212 
H 0.7088194489479065 -0.2733392119407654 -1.6068521738052368 
H 1.714258074760437 0.9571442604064941 -0.6609549522399902 
H -0.6208270192146301 1.6870299577713013 0.28840065002441406 
