11

C 1.280655860900879 0.7014219164848328 -0.27607086300849915 
C 0.2279355227947235 -0.33083900809288025 -0.6273712515830994 
O -0.9992057085037231 0.029838280752301216 -0.8567692637443542 
C -2.0994393825531006 -0.35763823986053467 0.6264468431472778 
O -2.9409329891204834 0.3325977325439453 1.0271172523498535 
H 2.1481213569641113 0.24280522763729095 0.21488142013549805 
H 0.8438527584075928 1.464411973953247 0.3791000247001648 
H 1.6305084228515625 1.1918690204620361 -1.198763132095337 
H 0.5995786190032959 -1.2493329048156738 -1.113229751586914 
H 0.07260582596063614 -1.0057097673416138 0.7363566160202026 
H -0.7636800408363342 -1.0194240808486938 1.0883018970489502 
