12

C -0.7164106965065002 -1.0293049812316895 1.3045917749404907 
O -1.497901439666748 -0.8242695331573486 0.17307212948799133 
C -1.0753328800201416 0.8950230479240417 -0.8367368578910828 
N 0.04555526748299599 1.22762930393219 -1.1108746528625488 
C 1.3974815607070923 0.7032519578933716 -1.029718041419983 
H -1.2291412353515625 -0.8354829549789429 2.268907070159912 
H 0.20840595662593842 -0.3836093544960022 1.3199316263198853 
H -0.35507848858833313 -2.0795578956604004 1.321244239807129 
H -2.008809804916382 0.6125240325927734 -0.3418852984905243 
H 1.8880866765975952 0.8457790017127991 -2.0055627822875977 
H 1.3804889917373657 -0.3708442151546478 -0.8018373847007751 
H 1.9626562595367432 1.2388614416122437 -0.26113182306289673 
