11

N 2.1546404361724854 0.28420349955558777 0.1727597564458847 
C 0.8415931463241577 -0.047692932188510895 0.02569364570081234 
N 0.46390843391418457 -1.3574804067611694 -0.1656319946050644 
N -0.8684568405151367 -1.3554950952529907 -0.26129150390625 
C -1.2520204782485962 0.013071482069790363 -0.009580559097230434 
O -2.492424488067627 0.4495733976364136 -0.3481210470199585 
N -0.1773369014263153 0.828130841255188 0.14574849605560303 
H 2.8054254055023193 -0.4093116521835327 -0.18027888238430023 
H 2.389280319213867 1.2523168325424194 -0.012373752892017365 
H -1.3958936929702759 -0.8975078463554382 0.9291503429412842 
H -2.492340326309204 1.4114959239959717 -0.17570452392101288 
