11

C -1.762719750404358 0.133865088224411 -0.3790132999420166 
N -0.3068710267543793 0.12052644789218903 -0.42780888080596924 
C 0.45135289430618286 -0.23359613120555878 0.6527394652366638 
O 0.017537051811814308 -0.6126907467842102 1.7381020784378052 
C 1.911969542503357 -0.15565696358680725 0.45202481746673584 
C 3.1912648677825928 -0.15704256296157837 0.4920414090156555 
H -2.1704893112182617 -0.2791464328765869 -1.3102506399154663 
H -2.1526215076446533 1.152169108390808 -0.23196297883987427 
H -2.075303792953491 -0.48911866545677185 0.46407589316368103 
H 0.15489159524440765 0.4964722990989685 -1.2492921352386475 
H 2.6088874340057373 0.1430705040693283 -0.6011297106742859 
