12

C 0.30691394209861755 -2.6124353408813477 0.19202743470668793 
C 0.6293925046920776 -1.4113938808441162 0.12920616567134857 
C 1.2436400651931763 -0.15641437470912933 0.06360609829425812 
N 0.7125006914138794 0.938202440738678 -1.3745701313018799 
C 0.4001016616821289 1.1025067567825317 0.06582652777433395 
C -0.9856496453285217 1.0384910106658936 0.5080097913742065 
C -2.143381357192993 1.1061692237854004 0.8774911165237427 
H 0.3629625737667084 -3.5887818336486816 0.6513052582740784 
H 1.7272539138793945 0.28725939989089966 -1.1391596794128418 
H -0.05292782559990883 0.3718535900115967 -1.766963005065918 
H 0.9197506904602051 1.9733296632766724 0.48116937279701233 
H -3.1205575466156006 0.9512137770652771 1.3120510578155518 
