6

O -0.05430561304092407 2.171410083770752 0.06297609955072403 
C 0.3403632640838623 1.0851925611495972 0.03435168042778969 
C -1.0054621696472168 -0.6539015173912048 -0.028399888426065445 
N -1.8812296390533447 -1.4461342096328735 -0.05743863806128502 
C 0.8207165002822876 -0.2051171064376831 0.0007174015045166016 
N 1.7838796377182007 -0.9499108195304871 -0.012258653528988361 
