9

C 1.6120201349258423 -0.3415708541870117 -0.039932478219270706 
C 1.155289888381958 -0.15976060926914215 1.2009899616241455 
C 0.07711619138717651 0.148864284157753 0.24067190289497375 
C -1.3668502569198608 0.011614449322223663 0.030676985159516335 
O -0.6704455614089966 1.313570499420166 0.11704330891370773 
H 2.442267656326294 -0.28088513016700745 -0.7433485984802246 
H 0.5813953280448914 -0.23906008899211884 -0.9391686320304871 
H -1.9997713565826416 -0.22016090154647827 0.8907603025436401 
H -1.7756179571151733 -0.22277460992336273 -0.9551087617874146 
