12

C 0.8402026891708374 0.2694147229194641 -1.05534029006958 
C 0.4925239086151123 0.2712222933769226 0.3997851014137268 
C -0.8252424001693726 0.702580451965332 0.9416018128395081 
O -0.9821247458457947 -0.5301330089569092 1.5805494785308838 
C -0.530581533908844 -1.8685635328292847 0.2117924690246582 
O -0.8221710920333862 -2.393906593322754 -0.7859447598457336 
H -0.00466510746628046 -0.008076866157352924 -1.6902943849563599 
H 1.670279622077942 -0.42220741510391235 -1.2679036855697632 
H 1.1679803133010864 1.2897495031356812 -1.312662959098816 
H 1.2926973104476929 0.1905059963464737 1.1317639350891113 
H -1.5835458040237427 0.9506696462631226 0.1910436600446701 
H -0.7153531908988953 1.548744797706604 1.6556096076965332 
