16

C 0.006876192521303892 -1.6315395832061768 1.029259204864502 
C 0.42589354515075684 -0.29587483406066895 0.42876964807510376 
C 0.31663331389427185 -0.22515714168548584 -1.1023666858673096 
C -0.09606561064720154 1.1836304664611816 -1.2734320163726807 
O -1.5424672365188599 1.5848708152770996 0.1804279088973999 
C 1.5110499858856201 0.3792377710342407 1.029018521308899 
N 2.3623063564300537 0.9611812233924866 1.6074501276016235 
H 0.6545900106430054 -2.4538381099700928 0.6564655303955078 
H -1.0150436162948608 -1.8980482816696167 0.7276461720466614 
H 0.06637056916952133 -1.6184004545211792 2.1262388229370117 
H -0.9582959413528442 0.886460542678833 0.7045990824699402 
H 1.271979808807373 -0.4517652988433838 -1.611716389656067 
H -0.4460704028606415 -0.9134041666984558 -1.4801017045974731 
H -0.7902883291244507 1.4970958232879639 -2.052501678466797 
H 0.5590920448303223 1.9616491794586182 -0.9130053520202637 
H -2.3265607357025146 1.0339014530181885 -0.056751154363155365 
