16

C 1.1230109930038452 0.08590376377105713 -1.6813842058181763 
C -0.21042269468307495 0.5827669501304626 -1.183738112449646 
C 0.13238133490085602 0.9189490675926208 1.0497345924377441 
C -0.3104349970817566 -0.5463733077049255 0.9164696335792542 
O -1.200993299484253 -1.048956036567688 1.90043306350708 
C -0.9785589575767517 -0.5194939970970154 -0.48007825016975403 
H 1.6418933868408203 -0.6992271542549133 -1.106452226638794 
H 1.8219059705734253 0.9159464240074158 -1.8712668418884277 
H 0.8764205574989319 -0.3593001663684845 -2.6598174571990967 
H 0.018351081758737564 1.4158604145050049 -0.10997561365365982 
H 1.1634783744812012 1.1407209634780884 1.3572825193405151 
H -0.6026656031608582 1.5433028936386108 1.5893229246139526 
H 0.5844737887382507 -1.1884673833847046 0.8964683413505554 
H -1.1008014678955078 -0.4812423586845398 2.7010741233825684 
H -0.9172128438949585 -1.5126826763153076 -0.9591942429542542 
H -2.0408260822296143 -0.24770745635032654 -0.358878493309021 
