16

C -0.9793769717216492 -1.1359130144119263 -0.2600911259651184 
C -0.24545849859714508 0.20818021893501282 -0.34045737981796265 
C -1.1377217769622803 1.356141209602356 0.1078522577881813 
C 1.180272102355957 -0.10335242003202438 1.0889614820480347 
C 1.83553946018219 -0.30676713585853577 -0.1509774625301361 
O 0.4962195158004761 0.4405130445957184 -1.4100780487060547 
H -1.772302269935608 -1.0825796127319336 -1.0277646780014038 
H -1.4601330757141113 -1.3114017248153687 0.7108033895492554 
H -0.34183967113494873 -1.9879724979400635 -0.5204250812530518 
H -1.8941569328308105 1.4839751720428467 -0.6882983446121216 
H -0.5715826749801636 2.2906980514526367 0.1756698042154312 
H -1.660036325454712 1.1526888608932495 1.0517295598983765 
H 0.8087244033813477 -0.9537023305892944 1.6540858745574951 
H 1.3271915912628174 0.8318396210670471 1.6227201223373413 
H 1.8961405754089355 -1.3051905632019043 -0.582643985748291 
H 2.5268547534942627 0.42187821865081787 -0.5632214546203613 
