12

C 1.0885975360870361 1.893742322921753 0.3644394874572754 
N -0.7991109490394592 0.9660521745681763 0.7308651804924011 
C -0.2862648367881775 0.5797134637832642 -0.32126492261886597 
N -0.6263349056243896 -1.4884322881698608 0.7038816809654236 
C -1.0032259225845337 -2.120217800140381 -0.4682929515838623 
O -2.027170181274414 -1.7717691659927368 -1.0744305849075317 
H 1.796247124671936 1.7191017866134644 -0.4427807331085205 
H 1.5039106607437134 1.5450825691223145 1.3258702754974365 
H 0.6936845779418945 2.915269136428833 0.4218246340751648 
H -0.3040887713432312 0.3790932893753052 -1.3669513463974 
H 0.39580005407333374 -1.5829554796218872 0.8631407618522644 
H -0.4320446252822876 -3.034679889678955 -0.7363014221191406 
