11

C -1.2157680988311768 -0.15308764576911926 0.003921531140804291 
C 0.27038300037384033 0.10262272506952286 0.12758487462997437 
N 1.1783537864685059 -0.7947356700897217 -0.0007599626551382244 
O 0.8067833781242371 -1.7181111574172974 -1.0111260414123535 
C 0.8028805255889893 1.933326005935669 -0.3366098403930664 
C 0.6226154565811157 1.5158343315124512 0.8713838458061218 
H -1.3793920278549194 -1.058471441268921 -0.5956907272338867 
H -1.6299057006835938 -0.2957110106945038 1.0131701231002808 
H -1.7111291885375977 0.7135191559791565 -0.45518407225608826 
H 1.5942137241363525 -1.8070244789123535 -1.5757317543029785 
H 0.660965085029602 1.56183922290802 1.9590421915054321 
