16

C -2.3858110904693604 -0.15220673382282257 -0.7519992589950562 
C -0.7791926860809326 -0.0404311902821064 -0.9576369524002075 
O -0.4449848532676697 1.248483419418335 -0.941734254360199 
C -0.315366268157959 -0.8656609058380127 0.16101421415805817 
C 2.017632246017456 0.2001795619726181 -0.370125412940979 
O 2.6544315814971924 -0.41686558723449707 -1.2121130228042603 
N 2.4614901542663574 0.48896366357803345 0.8977784514427185 
H -2.668243169784546 0.3279372751712799 0.19001398980617523 
H -2.739449977874756 -1.1874936819076538 -0.7834843993186951 
H -2.8020951747894287 0.4120410084724426 -1.5927934646606445 
H -0.6052024960517883 -0.5832529664039612 -1.9182275533676147 
H 1.010066032409668 0.7764774560928345 -0.6156597137451172 
H -0.23516643047332764 -0.4132669270038605 1.1494206190109253 
H -0.3501569926738739 -1.9563877582550049 0.11418476700782776 
H 3.454481601715088 0.3793923556804657 1.093421459197998 
H 1.9716744422912598 1.2100839614868164 1.4182136058807373 
