17

C 1.5168039798736572 -0.9700943231582642 -0.2442411184310913 
C 1.1334840059280396 0.49314364790916443 0.025424644351005554 
C 0.04666680470108986 0.9708095788955688 -0.8169659376144409 
C -0.9082038402557373 -0.26978158950805664 -0.7334561944007874 
C -1.5562471151351929 0.06546641141176224 0.5775167942047119 
C -0.05248740687966347 0.019762767478823662 1.058840036392212 
C 0.10097233951091766 -1.284074068069458 0.1661853790283203 
H 1.8255271911621094 -1.2297862768173218 -1.265389323234558 
H 2.249587059020996 -1.3415913581848145 0.48551514744758606 
H 1.8754570484161377 1.208906650543213 0.3864145278930664 
H 0.11922581493854523 1.6319695711135864 -1.686225175857544 
H -0.28616878390312195 1.9302997589111328 0.309339702129364 
H -1.4342679977416992 -0.6675050854682922 -1.6190438270568848 
H -2.1351048946380615 0.9942630529403687 0.6468135118484497 
H -2.0814671516418457 -0.7632930278778076 1.0742466449737549 
H -0.1313154548406601 1.6006687879562378 1.3739492893218994 
H -0.329768568277359 -2.2788143157958984 0.3284260034561157 
