17

C -1.2624760866165161 -1.8822826147079468 -0.2546413242816925 
O -0.13579212129116058 -1.5067994594573975 0.5234949588775635 
C 0.521019697189331 0.5916680097579956 0.0935567170381546 
C 1.0823434591293335 1.3318477869033813 1.237621545791626 
C -0.5848134160041809 1.2303352355957031 -0.6679818034172058 
C 1.0302451848983765 -0.744552493095398 -0.3108535408973694 
O 1.0499317646026611 -0.8345811367034912 -1.5927835702896118 
H -1.0698314905166626 -1.791955828666687 -1.344201683998108 
H -2.160600185394287 -1.2891603708267212 0.007380139082670212 
H -1.4944565296173096 -2.9372808933258057 -0.02500835247337818 
H 1.6335731744766235 2.2142910957336426 0.8678113222122192 
H 0.3001379072666168 1.698121428489685 1.9252365827560425 
H 1.7793031930923462 0.7117648124694824 1.8208321332931519 
H -0.9187417030334473 0.6092345118522644 -1.5101988315582275 
H -0.2244000881910324 2.2010653018951416 -1.0573511123657227 
H -1.4375221729278564 1.4817469120025635 -0.014182846061885357 
H 1.8920789957046509 -1.083462119102478 0.30126953125 
