12

O -1.431124210357666 -1.0320780277252197 -0.32028836011886597 
C -0.7849384546279907 -0.6042262315750122 0.7207131385803223 
C -0.4206964075565338 0.9046894311904907 0.6132702231407166 
C 0.3101111650466919 0.8832517862319946 -0.7365763187408447 
C 1.292228102684021 -0.0694519579410553 -0.5279840230941772 
C 1.4994109869003296 -1.1105529069900513 0.1781783103942871 
H -0.9508419632911682 -1.1747870445251465 1.6361148357391357 
H 0.19413991272449493 1.2122440338134766 1.4702106714248657 
H -1.3543287515640259 1.4967041015625 0.6121692061424255 
H -0.9892248511314392 -0.39616072177886963 -1.0567961931228638 
H 0.24746032059192657 1.6377562284469604 -1.5128097534179688 
H 2.2218072414398193 -1.5256837606430054 0.8667373657226562 
