19

C 2.0624475479125977 -0.659024178981781 0.15086796879768372 
C 1.1254997253417969 0.5503739714622498 0.2533373534679413 
C -0.3649428188800812 0.22795088589191437 0.40853238105773926 
C -1.160691738128662 1.0788367986679077 1.1954118013381958 
C -0.9791035652160645 -1.191452980041504 0.13806641101837158 
C -1.0384806394577026 -0.2356387823820114 -0.9952131509780884 
O -0.27031800150871277 -0.536884069442749 -2.0770246982574463 
H 1.8699523210525513 -1.24545419216156 -0.7631605267524719 
H 3.1008200645446777 -0.3218861222267151 0.09095127135515213 
H 1.9694925546646118 -1.3086929321289062 1.0257996320724487 
H 1.3951807022094727 1.1646370887756348 1.127969741821289 
H 1.200724482536316 1.196569800376892 -0.6431124806404114 
H -0.6883749961853027 1.8289097547531128 1.8332957029342651 
H -2.2298696041107178 0.8959195613861084 1.3281222581863403 
H -1.7679599523544312 2.0599067211151123 -0.4682024419307709 
H -0.3344801962375641 -2.067507743835449 0.0061089531518518925 
H -1.921953797340393 -1.3821007013320923 0.6546381711959839 
H -1.7039971351623535 1.4693740606307983 -1.024818778038025 
H -0.263944536447525 -1.523836612701416 -2.2415695190429688 
