12

C 1.5731356143951416 -0.19990472495555878 -0.08374138921499252 
C 0.18315832316875458 -0.5978531241416931 0.4538242518901825 
C -1.4742889404296875 1.4687145948410034 0.29396599531173706 
O -1.8801298141479492 0.7447471022605896 -0.6214019060134888 
C -0.7202560305595398 -1.0319974422454834 -0.5415666103363037 
O -1.1714117527008057 -1.7761738300323486 -1.3352254629135132 
H 2.149291753768921 0.25407201051712036 0.7325342893600464 
H 2.129230499267578 -1.0600751638412476 -0.47917771339416504 
H 1.472861409187317 0.5484886765480042 -0.8799009323120117 
H 0.2155553698539734 -1.318735957145691 1.280588150024414 
H -0.34620893001556396 0.46822085976600647 0.839746356010437 
H -2.0228445529937744 2.449608087539673 0.3573140799999237 
