16

C 2.5021095275878906 0.2813745439052582 0.6183048486709595 
C 1.346972942352295 -0.43243008852005005 0.1471347212791443 
N 1.5801225900650024 -0.8708527088165283 -1.082780361175537 
O 0.16310176253318787 -0.5688930153846741 0.7971900105476379 
C -1.0017907619476318 -0.5016754269599915 -0.029028506949543953 
C -2.2917799949645996 -0.11308541148900986 0.6201356053352356 
C -1.6091417074203491 0.8420102000236511 -0.3542022109031677 
H 2.606884717941284 0.4373830258846283 1.700199007987976 
H 2.6976006031036377 1.2194478511810303 0.07164311408996582 
H 2.8053386211395264 -0.5612277388572693 -0.6305552124977112 
H 0.9066293835639954 -0.6646042466163635 -1.8365689516067505 
H -1.0432353019714355 -1.2934060096740723 -0.783667802810669 
H -2.278596878051758 0.1395847499370575 1.681990623474121 
H -3.2064006328582764 -0.6223592758178711 0.31492191553115845 
H -2.065981388092041 1.0014504194259644 -1.319743037223816 
H -1.111831545829773 1.7072834968566895 0.08502610772848129 
