19

C -2.1633477210998535 -0.5383569598197937 -0.5486341714859009 
C -1.240920066833496 0.2597907781600952 0.393817275762558 
C 0.2074514925479889 0.2411060780286789 -0.06391216069459915 
C 0.903408408164978 -1.4355159997940063 0.8749963641166687 
C 0.7495954632759094 0.7759206891059875 -1.3212922811508179 
C 1.2419995069503784 1.3395826816558838 -0.055160071700811386 
O 2.5294125080108643 1.0373592376708984 0.45294374227523804 
H -1.8988617658615112 -1.6096712350845337 -0.5445012450218201 
H -2.091932535171509 -0.16738314926624298 -1.5778335332870483 
H -3.2088286876678467 -0.4503193795681 -0.22132818400859833 
H -1.3486113548278809 -0.056512780487537384 1.4329701662063599 
H -1.536627173423767 1.3269968032836914 0.38798782229423523 
H 1.941035509109497 -1.6402606964111328 0.5668985247612 
H 0.9235320091247559 -1.0028537511825562 1.883100152015686 
H 0.22097375988960266 -2.2722458839416504 0.7099742889404297 
H 0.06544680893421173 1.2314242124557495 -2.0511443614959717 
H 0.7067133784294128 -0.7342660427093506 -0.5096897482872009 
H 0.8705309629440308 2.275055170059204 0.3943849205970764 
H 3.1290290355682373 1.4201501607894897 -0.20357756316661835 
