16

C 0.7897835969924927 -1.7187174558639526 -0.656453013420105 
N -0.37708309292793274 -0.9255717992782593 -0.25536370277404785 
C -0.38554203510284424 -0.3324073255062103 1.1157103776931763 
C 0.38602086901664734 0.9938148260116577 1.258263111114502 
C 0.7037855386734009 1.2804120779037476 -0.23199598491191864 
C -0.4982473850250244 0.4646323025226593 -0.7455381751060486 
C -1.3142056465148926 0.7453910112380981 0.5887401103973389 
H 0.9384913444519043 -2.5238497257232666 0.07726189494132996 
H 0.5332016944885254 -2.1921274662017822 -1.6183878183364868 
H 1.7265393733978271 -1.165757656097412 -0.7628337144851685 
H -0.6193529367446899 -0.9673658609390259 1.9699429273605347 
H -0.8214942216873169 1.6861999034881592 1.2724525928497314 
H 1.6840606927871704 0.9074320793151855 -0.5508111715316772 
H 0.6090538501739502 2.349254608154297 -0.4913589358329773 
H -0.9543237686157227 0.6355015635490417 -1.7298444509506226 
H -2.4006876945495605 0.7631586790084839 0.7602159380912781 
