6

N -0.15755595266819 -0.5494966506958008 -0.6213714480400085 
C -0.09312020987272263 0.43978604674339294 0.22715944051742554 
O 1.0213515758514404 0.3600689172744751 0.8788134455680847 
H 1.0163713693618774 -0.7148836851119995 0.12862910330295563 
H -1.104849934577942 -0.9129202365875244 -0.8640257716178894 
H -0.6821969151496887 1.3774455785751343 0.25079524517059326 
