13

C -0.5179384350776672 -2.1811563968658447 0.3533754348754883 
N 0.4302009046077728 -0.523206353187561 -0.09982945770025253 
C 0.6720902323722839 0.35673198103904724 0.9595449566841125 
C 0.25019174814224243 1.6018377542495728 0.5470760464668274 
C -0.10851497203111649 1.4977474212646484 -0.851999819278717 
C 0.01151310745626688 0.18098005652427673 -1.2207229137420654 
H -1.368302583694458 -2.0004663467407227 -0.33888372778892517 
H 0.8838342428207397 -1.5241118669509888 -0.15492504835128784 
H -0.8766657710075378 -1.833240270614624 1.3589659929275513 
H 1.0359963178634644 -0.015618531033396721 1.9099063873291016 
H 0.1842799335718155 2.4883944988250732 1.1679643392562866 
H -0.3700830638408661 2.324384927749634 -1.5008935928344727 
H -0.2266017347574234 -0.37227746844291687 -2.1295785903930664 
