12

N -1.4619487524032593 -1.7768622636795044 2.12864351272583 
C -0.9632980227470398 -1.1141711473464966 1.3041504621505737 
C -0.30492159724235535 -0.3058490753173828 0.2952314019203186 
C -0.6568785309791565 -0.4622904062271118 -1.1307612657546997 
C 1.2495605945587158 0.6516843438148499 -0.6777930855751038 
C 0.3294013738632202 1.0885525941848755 0.446218341588974 
O 0.9442074298858643 -0.9108675122261047 -0.27609705924987793 
H -1.0600864887237549 0.3818632960319519 -1.701833724975586 
H -0.8203231692314148 -1.4671330451965332 -1.5212351083755493 
H 2.33497953414917 0.8205220699310303 -0.5504474639892578 
H 0.7798336148262024 1.187242865562439 1.4489235877990723 
H -0.3705264627933502 1.907308578491211 0.23500031232833862 
