14

O 1.3411059379577637 1.4921798706054688 0.08266015350818634 
C 1.5591520071029663 0.18750996887683868 -0.181736022233963 
C 0.6031420826911926 -0.6046676635742188 -0.9995685815811157 
N -0.641343355178833 0.19410237669944763 -0.9667689204216003 
C -1.2785673141479492 0.2663760483264923 0.3043087422847748 
C -0.9260996580123901 -0.3909843862056732 1.5312414169311523 
O -0.23537316918373108 -1.4088777303695679 1.7350454330444336 
H 0.4152773916721344 1.6701796054840088 -0.15839795768260956 
H 2.4959800243377686 -0.14289523661136627 0.24849143624305725 
H 0.5214757323265076 -1.5890510082244873 -0.5394564867019653 
H 0.9661580920219421 -0.711592972278595 -2.040630578994751 
H -1.2691395282745361 0.0369986891746521 -1.7613251209259033 
H -2.1719179153442383 0.8880741596221924 0.3111518323421478 
H -1.3798502683639526 0.1126481145620346 2.4349846839904785 
