15

C 1.433838963508606 1.0823885202407837 0.7897986173629761 
C 0.37751123309135437 0.20953086018562317 0.23632441461086273 
O 0.7716819643974304 -1.4555290937423706 -1.167074203491211 
C -0.8518218994140625 -0.324545294046402 0.8679861426353455 
C -1.4773476123809814 -0.2780865728855133 -0.5563817620277405 
C 0.0886152982711792 -0.04589972272515297 -1.2153419256210327 
O 0.46331673860549927 0.5441423058509827 -2.2367360591888428 
H 1.40818190574646 1.1065361499786377 1.890674352645874 
H 2.4241764545440674 0.7434176802635193 0.46684980392456055 
H 1.2944691181182861 2.1066510677337646 0.4101661145687103 
H 0.18018010258674622 -2.1554019451141357 -0.7875122427940369 
H -0.7842614054679871 -1.3273370265960693 1.3180279731750488 
H -1.2997804880142212 0.3785753548145294 1.5868799686431885 
H -2.0780200958251953 0.6204444766044617 -0.7135660648345947 
H -1.9507399797439575 -1.204886794090271 -0.8900952339172363 
