11

O -2.0973641872406006 0.8257643580436707 -0.30874311923980713 
C -1.0945765972137451 -0.114662304520607 -0.41831162571907043 
N 0.10075292736291885 0.45473361015319824 -0.8378511667251587 
C 1.348914623260498 0.13570311665534973 -0.4328887164592743 
O 2.2306857109069824 1.03241765499115 0.03963775560259819 
C 1.398460865020752 -1.188084363937378 -0.6055209040641785 
N -1.289821982383728 -1.368061900138855 -0.23500190675258636 
H -1.7092034816741943 1.6965701580047607 -0.5217234492301941 
H 1.7264374494552612 1.865587830543518 0.16864609718322754 
H 1.6273036003112793 -1.8194336891174316 -1.4566900730133057 
H -2.241588830947876 -1.5205355882644653 0.12123604118824005 
