19

C 0.8941205143928528 1.7384145259857178 -0.03678036853671074 
C -0.09117209166288376 0.7079353332519531 0.24335786700248718 
C -1.283657193183899 0.6527441143989563 -0.7785994410514832 
C -1.8497048616409302 -0.743890643119812 -0.5387398600578308 
O -0.7243426442146301 -1.5663485527038574 -0.10403697937726974 
C 0.3103216290473938 -0.7677739858627319 0.24826306104660034 
C 1.2173808813095093 -1.3240089416503906 1.2991136312484741 
H 1.551206111907959 0.5088434219360352 -1.4147531986236572 
H 1.8800476789474487 1.6602990627288818 0.42781487107276917 
H 0.6036616563796997 2.717883825302124 -0.40963393449783325 
H -0.5078871846199036 0.876946210861206 1.2570927143096924 
H -2.006084442138672 1.4610594511032104 -0.5963906645774841 
H -0.8994843363761902 0.7444359660148621 -1.7942885160446167 
H -2.5773017406463623 -0.7590124607086182 0.294853150844574 
H -2.3015198707580566 -1.2344759702682495 -1.41191565990448 
H 1.4561576843261719 -0.26012685894966125 -1.3736871480941772 
H 1.9509013891220093 -0.5574840903282166 1.5897620916366577 
H 0.6406465768814087 -1.6409857273101807 2.183288812637329 
H 1.7367099523544312 -2.2144551277160645 0.9152793288230896 
