10

O -0.9567013382911682 0.23468419909477234 1.6680400371551514 
C -0.9612195491790771 0.2641388177871704 0.4912669062614441 
C 0.05653887242078781 -0.06332095712423325 -0.571662425994873 
C 1.3606725931167603 -0.36975210905075073 -0.002881815191358328 
C 2.41686749458313 -0.5950064659118652 0.5526178479194641 
C -2.349315643310547 1.2993905544281006 -0.3742881417274475 
N -2.633347272872925 0.13122287392616272 -0.3898547887802124 
H 0.08129789680242538 0.7865577936172485 -1.2708148956298828 
H -0.37379518151283264 -0.901567816734314 -1.1463984251022339 
H 3.3528761863708496 -0.794097900390625 1.0336648225784302 
