13

C 0.7702140808105469 1.6140142679214478 -0.25891610980033875 
C 0.12057723104953766 0.33828654885292053 0.015590587630867958 
O -0.5258435606956482 0.6171391010284424 1.2450120449066162 
C -0.7766777276992798 -1.2825368642807007 0.5743591785430908 
C 0.6182291507720947 -1.1020026206970215 0.07673560082912445 
O 0.24124978482723236 -1.428696632385254 -1.3127330541610718 
C -0.9273712038993835 -0.7707504034042358 -0.7683082818984985 
H 1.8207508325576782 1.757119059562683 0.010037294588983059 
H -0.1580956131219864 1.7946182489395142 0.9394129514694214 
H 0.36665600538253784 2.269636631011963 -1.0076746940612793 
H -1.3185032606124878 -1.6931885480880737 1.4338151216506958 
H 1.5733438730239868 -1.508563756942749 0.4724629521369934 
H -1.8045294284820557 -0.6050750613212585 -1.4197934865951538 
