11

C 0.5503054857254028 -0.16383445262908936 -1.4229581356048584 
C -0.32427752017974854 -0.5374331474304199 -0.25670677423477173 
O -1.2069467306137085 0.30187132954597473 0.19971519708633423 
C -0.6775705218315125 0.9128878712654114 1.9224971532821655 
O -1.3069990873336792 1.777647614479065 2.379202365875244 
H 0.9263229966163635 0.8669469356536865 -1.3000074625015259 
H -0.047421351075172424 -0.18947182595729828 -2.350203514099121 
H 1.3954592943191528 -0.8561667203903198 -1.5375028848648071 
H -0.510883629322052 -1.6123415231704712 -0.11710335314273834 
H 0.7068006992340088 -0.5056715607643127 0.8892784714698792 
H 0.49521031975746155 0.005565611179918051 1.5937888622283936 
