14

C -0.7177160382270813 0.10959664732217789 -1.8693197965621948 
C -0.2999676764011383 -0.25400131940841675 -0.4720826745033264 
C 0.19824422895908356 -1.4459068775177002 -0.013366968370974064 
O 0.47567319869995117 -1.4630581140518188 1.3183529376983643 
C -0.03995440527796745 -0.21184638142585754 1.9493916034698486 
N 1.0017261505126953 0.8455836772918701 1.6119632720947266 
C -0.4501152038574219 0.5477092266082764 0.7139343619346619 
H -0.1113382875919342 -0.42051881551742554 -2.613727569580078 
H -1.7735952138900757 -0.156600683927536 -2.0606889724731445 
H -0.6136108636856079 1.1822569370269775 -2.0553393363952637 
H 0.4358272850513458 -2.3489439487457275 -0.5703455209732056 
H 1.1356014013290405 1.6512855291366577 2.208712339401245 
H 1.7983300685882568 0.5090206265449524 1.0708575248718262 
H -1.0391043424606323 1.4554235935211182 0.7816585898399353 
