17

O 1.06358003616333 -1.4205656051635742 0.6635422110557556 
C 1.285588264465332 -0.11696087568998337 0.46761783957481384 
C 0.694477915763855 0.5284578204154968 -0.7366161942481995 
C -0.7323319911956787 0.2693292796611786 -1.0994378328323364 
C -1.4767482280731201 -0.3830885887145996 0.10891611129045486 
C -1.041280746459961 0.37919503450393677 1.3334784507751465 
C 0.2549605369567871 0.7779738306999207 1.3536474704742432 
H 1.4912889003753662 -1.5486583709716797 -1.0472403764724731 
H 2.2657179832458496 0.34423521161079407 0.7303517460823059 
H 1.67861008644104 -1.0227495431900024 -1.6205835342407227 
H 1.2638452053070068 1.236119270324707 -1.3371586799621582 
H -0.8144299983978271 -0.3429764211177826 -2.00826358795166 
H -1.2136077880859375 1.2313525676727295 -1.3552234172821045 
H -1.1524728536605835 -1.4235899448394775 0.20048826932907104 
H -2.5667531490325928 -0.3472505211830139 -0.018017150461673737 
H -1.6962311267852783 0.4768521189689636 2.2019500732421875 
H 0.6957865357398987 1.3623251914978027 2.1625490188598633 
