15

C 0.549245297908783 -0.3934658467769623 2.2152395248413086 
C 0.7474141716957092 -0.7621266841888428 0.7485725283622742 
N -0.23138773441314697 -0.06372065097093582 -0.0734880343079567 
C 0.07026832550764084 1.029180884361267 -0.7422270178794861 
C -0.5049017071723938 1.1503565311431885 -2.0115249156951904 
N -2.084857702255249 0.6156823635101318 -1.975206732749939 
C -1.4291282892227173 -0.4002864956855774 -1.7655341625213623 
H 1.2525190114974976 -0.9318063259124756 2.871314525604248 
H 0.6837063431739807 0.6833940744400024 2.385371208190918 
H -0.47831153869628906 -0.6531197428703308 2.5465595722198486 
H 0.6510003805160522 -1.850683569908142 0.5984025001525879 
H 1.7818543910980225 -0.4848599433898926 0.4353266656398773 
H 0.8697262406349182 1.7199667692184448 -0.44074746966362 
H -0.41380271315574646 1.801498293876648 -2.8337934017181396 
H -1.4633442163467407 -1.4600096940994263 -1.9582655429840088 
