18

C 2.0105576515197754 -0.0038961071986705065 1.2765491008758545 
C 0.5573511719703674 0.35392242670059204 1.623092770576477 
C -0.16103416681289673 1.0552290678024292 0.4874502420425415 
C -0.25341928005218506 -0.6063038110733032 -1.3159794807434082 
C -1.650229811668396 -0.6006319522857666 -1.7028356790542603 
C -1.5146467685699463 0.9454736113548279 0.3145664632320404 
N -2.625491142272949 0.7571290731430054 -0.10563729703426361 
H 2.46533203125 -0.5638184547424316 2.112229347229004 
H 2.1056392192840576 -0.6173890233039856 0.37503325939178467 
H 2.5984654426574707 0.9097526669502258 1.0930018424987793 
H -0.00231336522847414 -0.545417070388794 1.927436113357544 
H 0.5510159134864807 1.017825961112976 2.5116868019104004 
H 0.34791266918182373 1.9018813371658325 0.029763810336589813 
H 0.464790403842926 0.016004476696252823 -1.845371127128601 
H 0.13101060688495636 -1.3534159660339355 -0.6240110993385315 
H -1.9983775615692139 0.05832959711551666 -2.493643283843994 
H -0.6941055059432983 -1.3659882545471191 -2.3286709785461426 
H -2.332458257675171 -1.3586876392364502 -1.3346613645553589 
