18

C -2.687347650527954 0.14167700707912445 -0.34659746289253235 
C -1.3617351055145264 -0.150412917137146 0.36617976427078247 
C -0.161765456199646 -0.10140902549028397 -0.6182419657707214 
C 1.1191308498382568 -0.4397931694984436 0.061268601566553116 
C 2.334129571914673 0.3969041407108307 -0.012309943325817585 
O 3.3113749027252197 0.17747792601585388 0.8381728529930115 
H -2.8838932514190674 -0.59879469871521 -1.135617971420288 
H -3.5264482498168945 0.11228028684854507 0.3618957996368408 
H -2.6736245155334473 1.1367477178573608 -0.8143002390861511 
H -1.3973360061645508 -1.142867922782898 0.8398040533065796 
H -1.1875343322753906 0.5779977440834045 1.170451045036316 
H -0.3690936267375946 -0.820020318031311 -1.4306325912475586 
H -0.102023646235466 0.9044907689094543 -1.062038540840149 
H 1.3759263753890991 -0.12339184433221817 2.024060010910034 
H 1.279227614402771 -1.486534595489502 0.33225560188293457 
H 2.0698535442352295 1.449347972869873 -0.2836471199989319 
H 2.55747127532959 -0.11244995892047882 -1.0234296321868896 
H 2.1931357383728027 -0.011242066510021687 1.9748177528381348 
