14

C -1.5722744464874268 0.2552286684513092 0.359130859375 
C -0.6085509061813354 -0.9063593745231628 0.11716743558645248 
C 0.8633772730827332 -0.5056750774383545 -0.2612040042877197 
C 1.5219955444335938 0.5236945748329163 0.5720363855361938 
O 1.6457141637802124 -1.519382357597351 -0.5024667382240295 
C 0.7265127301216125 0.5951581001281738 -1.3895679712295532 
N 0.704291820526123 1.3172132968902588 -2.3223981857299805 
H -1.2121278047561646 0.9494704604148865 1.1312040090560913 
H -2.535651683807373 -0.1430770605802536 0.7071046233177185 
H -1.7522834539413452 0.8301023840904236 -0.5579633116722107 
H -0.5067471861839294 -1.5390087366104126 1.0089000463485718 
H -0.9578952193260193 -1.545448899269104 -0.7022925019264221 
H 2.5834591388702393 0.6733207702636719 0.3765454888343811 
H 1.072458267211914 1.018166422843933 1.4371118545532227 
