17

C 2.605700969696045 -0.01718788780272007 -0.5325995087623596 
N 1.1788816452026367 -0.12615573406219482 -0.8374115824699402 
C 0.3425847291946411 -0.31314271688461304 0.29691433906555176 
O 0.44153884053230286 -1.2551307678222656 1.097462773323059 
N -1.2000401020050049 -0.004355741199105978 -0.2231418341398239 
C -2.19486665725708 -0.9822248816490173 0.17907848954200745 
C -1.2004950046539307 1.2452211380004883 0.28145208954811096 
H 2.854297637939453 0.8519916534423828 0.10441866517066956 
H 2.9171760082244873 -0.9289665818214417 -0.011446934193372726 
H 3.1605148315429688 0.06169544905424118 -1.4761426448822021 
H 0.8450427055358887 0.6404446363449097 -1.4205302000045776 
H -2.9107069969177246 -0.5643974542617798 0.9053311347961426 
H -1.6663635969161987 -1.8287339210510254 0.6441949605941772 
H -2.754345655441284 -1.3392871618270874 -0.6972597241401672 
H -0.6524284482002258 2.0298702716827393 -0.24543103575706482 
H -2.021656036376953 1.5877407789230347 0.9278042912483215 
H 0.31615012884140015 0.8530590534210205 0.9763217568397522 
