15

C 0.7721520662307739 -1.2242021560668945 1.160266637802124 
C -0.11141325533390045 -0.044469743967056274 1.6006208658218384 
O -1.0860553979873657 0.3887939453125 0.7121448516845703 
C 0.09645766019821167 1.2828561067581177 -0.9084183573722839 
O 0.7604515552520752 2.1527156829833984 -0.5181521773338318 
C -0.8751160502433777 0.3028108477592468 -1.195417881011963 
O -0.3980499804019928 0.895984947681427 -2.8397696018218994 
H 1.4362848997116089 -0.9217116832733154 0.33981117606163025 
H 0.15243415534496307 -2.0729451179504395 0.847620964050293 
H 1.4058986902236938 -1.5638676881790161 1.9983136653900146 
H 0.5616421699523926 0.8058621883392334 1.8804409503936768 
H -0.6484085917472839 -0.3271394968032837 2.537018060684204 
H -0.5980848073959351 -0.7438716888427734 -1.1959697008132935 
H -1.9224588871002197 0.6007994413375854 -1.304556131362915 
H 0.45426562428474426 0.4683845043182373 -3.1139538288116455 
