13

C 2.0102763175964355 0.15398992598056793 0.799161970615387 
C 0.5331246852874756 -0.07658179849386215 0.6085695624351501 
C -0.27313315868377686 -0.9005926847457886 1.3102022409439087 
N -2.350205659866333 -0.5845811367034912 -0.6401394009590149 
C -1.31354558467865 0.03287377208471298 -1.150710940361023 
C -0.27357587218284607 0.6448506712913513 -0.3663816750049591 
H 2.1861677169799805 0.9805688858032227 1.500669240951538 
H 2.487532377243042 0.40879788994789124 -0.16315682232379913 
H 2.502211332321167 -0.7455757260322571 1.194319248199463 
H -1.3654273748397827 -0.8837311863899231 1.2400866746902466 
H -3.0632386207580566 -0.7738125324249268 -1.370471715927124 
H -1.2042447328567505 0.1439753621816635 -2.2415401935577393 
H 0.12405870109796524 1.5998185873031616 -0.7206078171730042 
