12

O 0.5173472762107849 0.7657032012939453 -1.6555802822113037 
C -0.6386765837669373 -0.1412789672613144 -0.6006366014480591 
C -0.4575459361076355 0.6922929286956787 0.5515447854995728 
C 0.4529784321784973 -0.35313376784324646 1.2913098335266113 
C 0.2731952667236328 -1.2138267755508423 0.017206653952598572 
O 0.627881646156311 -2.31410813331604 -0.35819461941719055 
H -0.059075627475976944 1.4084539413452148 -2.1671142578125 
H -1.4163764715194702 -0.3715343177318573 -1.3287924528121948 
H -1.3028671741485596 1.147547721862793 1.0749309062957764 
H 0.5421693325042725 1.2122411727905273 -0.5471093654632568 
H -0.008366456255316734 -0.8178809881210327 2.1784446239471436 
H 1.4693363904953003 -0.014476115815341473 1.5439906120300293 
