14

C -1.556785225868225 0.7133363485336304 -0.5283676385879517 
C 0.6838822960853577 0.9740918874740601 0.24936993420124054 
O 0.5700847506523132 1.7627761363983154 1.3066285848617554 
C 0.8895853161811829 -0.44423189759254456 0.5666409730911255 
O 1.1667251586914062 -0.7563891410827637 1.7352626323699951 
C 0.8177158832550049 -1.4448261260986328 -0.5674995183944702 
H -2.053415536880493 1.6335445642471313 -0.18647964298725128 
H -1.8060060739517212 -0.15140211582183838 0.08386833965778351 
H -1.7079612016677856 0.565327525138855 -1.6055033206939697 
H -0.27452540397644043 1.1028594970703125 -0.5639437437057495 
H 0.8854768872261047 1.1901711225509644 2.0663437843322754 
H 1.5300573110580444 -2.260815143585205 -0.38738733530044556 
H -0.18398337066173553 -1.9020298719406128 -0.6337752938270569 
H 1.0391491651535034 -0.9824130535125732 -1.5351577997207642 
