15

C 0.5218419432640076 1.5961705446243286 -0.9262993931770325 
C 0.25430360436439514 1.0014618635177612 0.3686204254627228 
C -0.32094234228134155 -0.37902772426605225 0.44151315093040466 
C -1.7792437076568604 -0.5662673711776733 0.7072853446006775 
O -0.7987430691719055 -0.7640292048454285 1.7545089721679688 
C 0.3855016827583313 -1.3772001266479492 -0.351683646440506 
C 0.6437873840332031 -2.256730079650879 -1.1782206296920776 
H 0.7579424381256104 2.663243532180786 -0.9392441511154175 
H 0.6899542212486267 0.9593994617462158 -1.7866712808609009 
H 1.5186227560043335 1.0780361890792847 0.09439006447792053 
H 1.6373915672302246 0.5743125677108765 1.2130341529846191 
H -0.017385290935635567 1.6689531803131104 1.1669217348098755 
H -2.4172589778900146 0.2959863543510437 0.8384380340576172 
H -2.2444052696228027 -1.4925001859664917 0.33363762497901917 
H 1.168632984161377 -3.0018088817596436 -1.7362301349639893 
