15

N -1.0401262044906616 0.9732508063316345 -0.2107907384634018 
C -1.3492422103881836 0.20126159489154816 -1.2645907402038574 
O -2.363116502761841 -0.025339437648653984 -1.9172974824905396 
N -0.28809529542922974 -0.8666748404502869 -1.385953664779663 
C 0.9511924982070923 -0.7176133394241333 -0.8487116694450378 
C 0.980147123336792 0.19372190535068512 1.3346508741378784 
O -0.05201197415590286 0.08076173812150955 2.2835137844085693 
H 0.16902343928813934 0.6895586848258972 0.3641030192375183 
H -1.5619032382965088 1.8573830127716064 -0.2915535271167755 
H -0.7879772186279297 -1.734114646911621 -1.1623470783233643 
H 1.5250482559204102 0.15724919736385345 -1.055820345878601 
H 1.4565588235855103 -1.6507060527801514 -0.5871119499206543 
H 1.6074330806732178 -0.6933836936950684 1.4874821901321411 
H 1.6230850219726562 1.0898113250732422 1.3993723392486572 
H -0.8700152039527893 0.4448336660861969 1.8550554513931274 
