14

C -1.690354824066162 0.5113499164581299 0.2964440584182739 
C -0.353986531496048 -0.0609176829457283 -0.0953887552022934 
C 0.5716419816017151 -0.6326814293861389 0.9863497018814087 
C 1.9410892724990845 0.21799762547016144 -0.649787187576294 
C 0.5501382350921631 0.41022831201553345 -1.157935619354248 
O -0.2866130769252777 -0.7892696261405945 -1.3303228616714478 
H -1.5707122087478638 1.3200687170028687 1.0311235189437866 
H -2.3219521045684814 -0.2694769501686096 0.7476304173469543 
H -2.2082061767578125 0.9063716530799866 -0.5858557820320129 
H 0.46554040908813477 -0.14860548079013824 1.9661898612976074 
H 0.5637195110321045 -1.7240177392959595 1.064448356628418 
H 1.6694543361663818 -0.22372221946716309 0.7192146182060242 
H 2.3063669204711914 -0.7598701119422913 -1.0332410335540771 
H 0.31898432970046997 1.2445060014724731 -1.8243123292922974 
