6

C 0.8513460755348206 0.5231718420982361 -0.3465327322483063 
C 0.6393811106681824 -0.38461834192276 -1.280411720275879 
C -0.38280588388442993 -1.0934276580810547 -0.7338888645172119 
N -1.093291997909546 -0.6417195796966553 0.5126855969429016 
C 0.6063829064369202 1.0279070138931274 0.9166063666343689 
N -0.6210121512413025 0.5686867833137512 0.9315413236618042 
