16

C 0.32183897495269775 0.5488584637641907 -1.8281898498535156 
C 0.11334636807441711 0.755525529384613 -0.34328630566596985 
C 1.1917383670806885 1.5285074710845947 0.38442909717559814 
C -0.6518025994300842 -1.7453858852386475 0.97877436876297 
O -0.5403214693069458 -2.9881198406219482 1.412888526916504 
C -1.1374225616455078 0.6663975715637207 0.2036972939968109 
N -2.1623504161834717 0.373776376247406 0.7768847346305847 
H 1.226235032081604 -0.05858376622200012 -2.006532669067383 
H 0.4581714868545532 1.5133262872695923 -2.3435704708099365 
H -0.5338450074195862 0.04264243692159653 -2.3033864498138428 
H 1.2845832109451294 2.554760694503784 -0.01407863199710846 
H 2.1762330532073975 1.0456899404525757 0.25506725907325745 
H 1.0027754306793213 1.621384620666504 1.4625842571258545 
H -0.9921147227287292 -1.618755578994751 -0.049267321825027466 
H -0.323386549949646 -0.9471039772033691 1.66520094871521 
H -1.433678388595581 -3.2929208278656006 1.748785376548767 
