19

C -1.217919111251831 -0.8891743421554565 1.9129853248596191 
C -0.937157928943634 -1.6948133707046509 0.6410030126571655 
O -0.2051195502281189 -1.6408356428146362 -1.1547026634216309 
C -0.18252767622470856 -0.44661179184913635 -0.5126393437385559 
C 1.0979821681976318 0.11921849846839905 0.0953032448887825 
C 1.3274425268173218 0.8042305111885071 -1.1752562522888184 
C 0.8005526661872864 2.1695327758789062 -1.4603214263916016 
H -0.30134767293930054 -0.6198326349258423 2.4486289024353027 
H -1.7884025573730469 0.01585078239440918 1.6903306245803833 
H -1.8337186574935913 -1.5296908617019653 2.5727531909942627 
H -1.878528356552124 -2.0605335235595703 0.2029467523097992 
H -0.20128975808620453 -2.482896327972412 0.8337733745574951 
H -0.9621813297271729 0.29605531692504883 -0.7104984521865845 
H 0.9029586911201477 0.8133455514907837 0.927078366279602 
H 1.7862684726715088 -0.6939213275909424 0.3511618971824646 
H 1.5932106971740723 0.19045668840408325 -2.048370599746704 
H 1.567150354385376 2.783392906188965 -1.9715471267700195 
H -0.09538141638040543 2.1689200401306152 -2.11116361618042 
H 0.5280085206031799 2.6973071098327637 -0.5314659476280212 
