16

C -0.07574362307786942 -1.8452481031417847 -0.5156655311584473 
C -0.7225438356399536 -0.5021501779556274 -0.7011921405792236 
C 0.7767825126647949 0.9064618945121765 -0.634689211845398 
C 0.5646640062332153 1.374766230583191 0.788413941860199 
C -0.5564968585968018 0.509005069732666 1.4467381238937378 
C -1.5176286697387695 0.004818012472242117 0.6572585701942444 
H 0.5402417182922363 -1.8873494863510132 0.3921207785606384 
H 0.5453300476074219 -2.107192277908325 -1.3882595300674438 
H -0.8724895715713501 -2.6078641414642334 -0.42613714933395386 
H -1.337038516998291 -0.42463183403015137 -1.6023808717727661 
H 1.5872750282287598 0.21085160970687866 -0.8169269561767578 
H 0.6734583377838135 1.6477996110916138 -1.4332143068313599 
H 1.4950248003005981 1.2781254053115845 1.380321979522705 
H 0.27636289596557617 2.4415528774261475 0.8176354169845581 
H -0.5213857889175415 0.3686542212963104 2.5338523387908936 
H -0.8558127880096436 0.6324009299278259 -0.49787554144859314 
