14

C 1.1466798782348633 0.303943008184433 0.9466823935508728 
C -0.1697036176919937 0.8486654758453369 0.5146334767341614 
C -1.4060168266296387 -0.672379195690155 0.19839321076869965 
C -0.9735158681869507 -1.0823255777359009 -1.2053793668746948 
C 0.3095325231552124 -0.6907942295074463 -1.3527408838272095 
C 0.8167609572410583 0.515781819820404 -0.52945876121521 
H 1.8784105777740479 0.9819186329841614 1.404096007347107 
H 1.190726399421692 -0.7307639718055725 1.3153491020202637 
H -0.5821410417556763 1.7775781154632568 0.9090009927749634 
H -0.9754659533500671 -1.3277373313903809 0.9552913904190063 
H -2.4570090770721436 -0.4544525742530823 0.4274255931377411 
H -1.1649683713912964 0.40951791405677795 -0.4525461792945862 
H 1.0280778408050537 -1.1640136241912842 -2.0374927520751953 
H 1.358633041381836 1.2850613594055176 -1.0932542085647583 
