17

C -0.16395868360996246 -0.7497485876083374 -2.1594064235687256 
C -0.04636969044804573 0.6867382526397705 -1.7990773916244507 
C -0.367552787065506 1.2225738763809204 -0.5370112657546997 
O -0.7629686594009399 0.2823832631111145 0.45519116520881653 
C 0.4628135859966278 -0.2971693277359009 1.1402891874313354 
C -0.020321305841207504 -0.4920026361942291 2.5818724632263184 
O 1.4662169218063354 0.5650584697723389 0.9917802214622498 
H -0.8662224411964417 -0.9211104512214661 -2.996351957321167 
H -0.5298343300819397 -1.3156791925430298 -1.291887879371643 
H 0.8067668080329895 -1.158738613128662 -2.4731462001800537 
H 0.18328066170215607 1.377515435218811 -2.6149964332580566 
H -1.0215723514556885 2.1169161796569824 -0.5440660119056702 
H 0.6730881929397583 1.609074592590332 -0.20690354704856873 
H 0.585878312587738 -1.2896673679351807 0.6690957546234131 
H -0.952030599117279 -1.0740561485290527 2.6008565425872803 
H -0.21382179856300354 0.47383859753608704 3.047342300415039 
H 0.7666084170341492 -1.0359265804290771 3.136420249938965 
