11

N -1.786035180091858 -0.4419366419315338 -0.056475862860679626 
C -0.44951531291007996 -0.19343388080596924 -0.003004977712407708 
C 0.1950247585773468 1.0753010511398315 0.06901805102825165 
O 1.3538007736206055 0.9962948560714722 1.0186171531677246 
C 1.7393161058425903 0.29353442788124084 -0.056154701858758926 
O 2.7410035133361816 0.19090065360069275 -0.7072447538375854 
N 0.5231963992118835 -1.1067383289337158 -0.07077636569738388 
H -2.112727165222168 -1.2623226642608643 -0.55779629945755 
H -2.4299933910369873 0.34030964970588684 -0.01921660080552101 
H -0.1871614307165146 2.078279972076416 -0.08557889610528946 
H 0.41779711842536926 -1.9753620624542236 0.46700319647789 
