13

C 0.5368555784225464 -0.6572953462600708 0.6752129197120667 
C -0.9375686645507812 -0.9109020829200745 0.4321592450141907 
O -1.6465508937835693 0.22373612225055695 0.19027204811573029 
C -0.9775273203849792 1.4297468662261963 -0.1315314918756485 
N 0.2518948018550873 1.5987311601638794 -0.3599807024002075 
C 1.1440824270248413 0.44144168496131897 -0.20722083747386932 
H 0.5850235223770142 -0.3369296193122864 1.731124997138977 
H 1.0873597860336304 -1.6034897565841675 0.5965095162391663 
H -0.7168940901756287 -1.699286699295044 -1.324338674545288 
H -1.1406461000442505 -1.7840116024017334 -0.49094441533088684 
H -1.711080551147461 2.234288215637207 -0.19054564833641052 
H 2.09246563911438 0.8122642636299133 0.20785921812057495 
H 1.3610849380493164 0.052070677280426025 -1.213380217552185 
