13

O 1.708680510520935 1.3445348739624023 -0.7865809798240662 
C 1.8798853158950806 0.6459025144577026 0.34776973724365234 
C 1.057523488998413 -0.4456076920032501 0.681583046913147 
C 0.08404541015625 -1.2735576629638672 0.4660756587982178 
C -1.3565906286239624 -0.9146497249603271 0.5942394137382507 
C -1.7897218465805054 0.21546021103858948 -0.32883772253990173 
O -1.0654600858688354 0.9335353374481201 -1.0074478387832642 
H 0.771774172782898 1.152722716331482 -1.075272798538208 
H 2.7152516841888428 0.9764154553413391 0.9613738059997559 
H 2.2628159523010254 -0.7736574411392212 0.3823453187942505 
H -1.6307984590530396 -0.5756663680076599 1.6132197380065918 
H -2.053025484085083 -1.7484599351882935 0.3821812570095062 
H -2.8942761421203613 0.35345780849456787 -0.3842805325984955 
