11

O -0.4553413987159729 -1.1001228094100952 -2.296159505844116 
C -0.37001344561576843 -0.8539390563964844 -1.1240627765655518 
O -1.1249953508377075 -1.3937134742736816 -0.11660391837358475 
C -0.7833436131477356 -0.8750295042991638 1.137614369392395 
C 0.05988309904932976 0.1606617420911789 1.0599042177200317 
C 0.45571768283843994 0.4171154201030731 -0.3845450282096863 
C 1.4600266218185425 1.1847208738327026 -0.9465561509132385 
H -1.218015432357788 -1.4547593593597412 1.948909044265747 
H 0.3896596133708954 0.7950064539909363 1.8773757219314575 
H -0.28349924087524414 1.1507524251937866 -0.8704164028167725 
H 1.8699216842651367 1.9693071842193604 -0.28545939922332764 
