13

N 2.209914445877075 -0.12907488644123077 -1.9700912237167358 
C 1.4937410354614258 0.35398349165916443 -1.1587018966674805 
C 0.41346341371536255 0.8234978318214417 -0.2672986686229706 
C -1.0463052988052368 0.354245126247406 -0.5601131916046143 
C -1.2184184789657593 -0.2947536110877991 0.8189877271652222 
C -0.011039276607334614 -1.183472752571106 0.9124074578285217 
N 0.5362936854362488 0.1929744929075241 1.1054425239562988 
H 0.5131255984306335 1.9116712808609009 -0.1920400857925415 
H -1.1334589719772339 -0.36141887307167053 -1.3945802450180054 
H -1.705637812614441 1.2058017253875732 -0.7672278881072998 
H -0.5040755867958069 0.6014351844787598 1.604112982749939 
H 0.3458305895328522 -1.7244720458984375 0.024173680692911148 
H 0.10656628012657166 -1.7504167556762695 1.8449286222457886 
