10

O 0.9787611961364746 -1.752739429473877 0.23351332545280457 
C 1.1052584648132324 -0.49970361590385437 -0.4344348609447479 
C -0.18768876791000366 0.20486076176166534 -0.5673698782920837 
C -0.6491572260856628 1.4840621948242188 -0.5614222288131714 
C -2.155550003051758 1.6414414644241333 -0.31583696603775024 
C -1.5815839767456055 0.6083455681800842 0.40323272347450256 
H 0.6819199919700623 -1.5645662546157837 1.1566959619522095 
H 1.4844683408737183 -0.7433766722679138 -1.4476089477539062 
H 1.8459964990615845 0.1735864132642746 0.0489216148853302 
H -1.5224246978759766 0.448089599609375 1.484309196472168 
