11

C -0.6054481863975525 0.18033626675605774 -1.6216001510620117 
C 0.5466592907905579 -0.2946953773498535 -1.9143643379211426 
C 0.18678204715251923 -0.8496947884559631 -0.2696693539619446 
C 0.6320109963417053 0.14990173280239105 0.8172065615653992 
C -0.42579373717308044 1.1200997829437256 1.136518120765686 
N -1.246893286705017 1.902355432510376 1.4308749437332153 
H -1.6294655799865723 0.4929697811603546 -1.4549704790115356 
H -0.7907516956329346 -1.2905831336975098 -0.010159913450479507 
H 0.9016125202178955 -1.6827175617218018 -0.31076908111572266 
H 0.904366135597229 -0.41401445865631104 1.7284611463546753 
H 1.5269215106964111 0.6860423684120178 0.4684726893901825 
