13

C -2.2523467540740967 0.4297453463077545 0.2333056777715683 
N -0.4546451270580292 -0.2439926564693451 -0.5551551580429077 
C 0.18309266865253448 -1.1789871454238892 0.26241737604141235 
C 1.4626452922821045 -0.7361472249031067 0.490039587020874 
C 1.6210899353027344 0.5162203907966614 -0.20773367583751678 
C 0.4336017370223999 0.7959516048431396 -0.8393515348434448 
H -2.1260223388671875 -0.11523228138685226 1.1943920850753784 
H -1.3982977867126465 -0.36575451493263245 -1.0034693479537964 
H -1.8660550117492676 1.4478918313980103 0.45280227065086365 
H -0.34442782402038574 -2.069175958633423 0.5833925008773804 
H 2.2090566158294678 -1.2419586181640625 1.093278408050537 
H 2.5140328407287598 1.130954623222351 -0.22821304202079773 
H 0.11840677261352539 1.6207215785980225 -1.4655852317810059 
