12

N -0.6056986451148987 -0.0885007232427597 -1.51956307888031 
C -0.056107304990291595 0.8662455081939697 -0.6983547210693359 
C -1.0631937980651855 -0.05099891871213913 0.082429438829422 
C 0.14886392652988434 -0.5226089954376221 0.9669292569160461 
N 1.2719746828079224 -1.0261223316192627 0.20557266473770142 
C 1.079142451286316 0.44665583968162537 0.27701619267463684 
H -1.3054722547531128 -0.8800350427627563 -0.8071441054344177 
H -0.2862027883529663 1.922186255455017 -0.9089667201042175 
H -2.018895387649536 0.3700868785381317 0.39666444063186646 
H 0.018092909827828407 -0.7782396078109741 2.018650770187378 
H 0.9582557678222656 -1.3375418186187744 -0.7063553333282471 
H 1.859240174293518 1.0788730382919312 0.6931206583976746 
