17

C -0.038413967937231064 1.227414608001709 -1.492026686668396 
C -0.4993511736392975 -0.09196888655424118 -0.8854165077209473 
C 1.0566608905792236 -0.9138979911804199 0.0908031016588211 
O 1.7555899620056152 0.003356503089889884 0.7137560844421387 
C -0.13256485760211945 -1.5042744874954224 0.8762570023536682 
C -1.014296531677246 -0.3668701648712158 0.40781891345977783 
O -0.18237052857875824 0.9018275737762451 1.707275629043579 
H 0.6517413258552551 1.0594438314437866 -2.3283121585845947 
H 0.4846028983592987 1.8407641649246216 -0.742049515247345 
H -0.885759711265564 1.8286855220794678 -1.8597639799118042 
H -0.7430360317230225 -0.8621319532394409 -1.6307804584503174 
H 1.5541393756866455 -1.471848964691162 -0.7250704765319824 
H 0.8831093311309814 0.7408533692359924 1.2698397636413574 
H 0.04872938618063927 -1.6087472438812256 1.9535188674926758 
H -0.46518874168395996 -2.4609262943267822 0.4580807387828827 
H -1.983136773109436 -0.07710689306259155 0.8356380462646484 
H -0.490454763174057 1.7554277181625366 1.35043203830719 
