18

C 0.351748526096344 1.072004795074463 -1.2831759452819824 
C -0.6253515481948853 0.12702882289886475 -0.6830178499221802 
C -0.7396932244300842 -1.1991491317749023 -1.467848539352417 
C -0.270624577999115 -0.08492624014616013 0.8319078087806702 
C 0.009293397888541222 1.133949637413025 1.6817073822021484 
C 1.2683398723602295 -0.9867480397224426 0.8635298013687134 
N 1.3972901105880737 -1.7779457569122314 1.7829105854034424 
H 1.8333370685577393 -0.6550371050834656 -0.02107531763613224 
H 1.1324310302734375 0.704779863357544 -1.937524437904358 
H 0.20850816369056702 2.1364188194274902 -1.1447844505310059 
H -1.6261770725250244 0.58414226770401 -0.619053304195404 
H -1.0256965160369873 -1.0069067478179932 -2.503673553466797 
H -1.4934370517730713 -1.851663589477539 -1.0118963718414307 
H 0.22346653044223785 -1.7337332963943481 -1.4877536296844482 
H -0.923113226890564 -0.796802282333374 1.3033387660980225 
H 0.9100743532180786 1.6593316793441772 1.3093318939208984 
H -0.8338940739631653 1.8353852033615112 1.6684457063674927 
H 0.20349831879138947 0.8398707509040833 2.7186310291290283 
