10

O 1.47572660446167 0.814665675163269 -1.5233477354049683 
C 0.6406289339065552 0.2403573989868164 -0.8608869910240173 
C -0.1513286679983139 0.9376361966133118 0.5706904530525208 
C -0.20047155022621155 -0.41625890135765076 1.0385191440582275 
O -0.8631587028503418 -1.2612760066986084 0.23122088611125946 
C -0.09821153432130814 -0.9601476192474365 -0.9418708086013794 
H -1.0993283987045288 1.3511041402816772 0.21518898010253906 
H 0.4448523223400116 1.6494807004928589 1.157313585281372 
H 0.24378950893878937 -0.8284004330635071 1.9342870712280273 
H -0.39249855279922485 -1.5271607637405396 -1.821114420890808 
