17

C -1.3416111469268799 -1.7149628400802612 0.7069907188415527 
C -0.323472261428833 -0.7733866572380066 0.09958723932504654 
C 2.0208287239074707 0.5788478851318359 -0.644599974155426 
C 1.041111946105957 1.2453230619430542 0.20930816233158112 
C -0.3370538651943207 1.3560545444488525 -0.32809725403785706 
C -0.6203936338424683 0.08283370733261108 -1.1197550296783447 
C 0.33799856901168823 0.1400110274553299 0.976636528968811 
H -2.3133649826049805 -1.221307396888733 0.8536151647567749 
H -1.4927093982696533 -2.596201181411743 0.07856816053390503 
H -1.011642575263977 -2.063436269760132 1.7050464153289795 
H 2.7378311157226562 -0.10452999174594879 -0.19493800401687622 
H 2.223627805709839 0.9142664670944214 -1.6654833555221558 
H 1.414487361907959 2.0882842540740967 0.8194336891174316 
H -1.1349848508834839 2.0855069160461426 -0.11313507705926895 
H -1.6935322284698486 0.04014790803194046 -1.3967128992080688 
H -0.03201182931661606 -0.06482651084661484 -2.0358707904815674 
H 0.5248910784721375 0.007375230081379414 2.0494065284729004 
