13

N 1.3310261964797974 -1.0160667896270752 1.2448997497558594 
C -1.2919243574142456 -0.5412407517433167 1.5604166984558105 
O -1.327558159828186 0.21766529977321625 0.4324367940425873 
C -0.2503831088542938 1.0297586917877197 -0.15050379931926727 
C 0.30549517273902893 0.2188304364681244 -1.38047194480896 
C 0.6893650889396667 -1.0895096063613892 -0.8184871673583984 
N 0.32507631182670593 -1.4009333848953247 0.3580651581287384 
H 2.1995744705200195 -0.9382990598678589 0.694530189037323 
H -2.3482704162597656 -0.5139381289482117 1.8795809745788574 
H 0.5142751932144165 1.1701838970184326 0.6053277850151062 
H -0.7386751770973206 1.9501475095748901 -0.45689329504966736 
H -0.5200852155685425 0.12523551285266876 -2.1034116744995117 
H 1.112083911895752 0.7881664037704468 -1.8654897212982178 
