16

C -0.4564257860183716 1.4395376443862915 0.4042527675628662 
C 0.6737622022628784 0.7361528277397156 -0.2224784940481186 
C 1.469759225845337 -0.3492387533187866 0.496868371963501 
O 0.9399828910827637 -1.593464970588684 0.015827670693397522 
C -0.11347281187772751 -1.1790401935577393 -0.8010820746421814 
C -1.4371027946472168 -1.050702452659607 -0.246702179312706 
H -0.5859699249267578 1.3766591548919678 1.4953417778015137 
H 0.8496166467666626 1.865917444229126 0.4086916744709015 
H -0.934046745300293 2.2754478454589844 -0.11729781329631805 
H 1.0096430778503418 1.0444499254226685 -1.2121806144714355 
H 2.5514755249023438 -0.2743963897228241 0.27384325861930847 
H 1.3531279563903809 -0.315263569355011 1.5856269598007202 
H 0.08129018545150757 -1.2789803743362427 -1.8747776746749878 
H -2.2578766345977783 -1.2196786403656006 -0.9591691493988037 
H -1.6019415855407715 -1.5786062479019165 0.6997694373130798 
H -1.5418212413787842 0.101206935942173 0.05346619710326195 
