17

C -0.4218828082084656 -0.23016636073589325 -2.250275135040283 
O -1.499316692352295 0.3591596186161041 -1.5527621507644653 
C -1.5456072092056274 0.2627239525318146 -0.179216668009758 
C 0.733959972858429 -0.4040037989616394 0.8271470665931702 
C 1.4741376638412476 -0.3825378119945526 2.040865659713745 
C -0.10721474140882492 0.8613417148590088 0.4779587388038635 
O 0.5300726890563965 1.7321789264678955 -0.21722672879695892 
H 0.5307081937789917 0.3013836145401001 -2.0212252140045166 
H -0.2724981904029846 -1.318379521369934 -2.00073504447937 
H -0.6498183012008667 -0.1781541109085083 -3.3226816654205322 
H -1.7124037742614746 -0.8172563314437866 0.09594857692718506 
H -2.3134329319000244 0.903545081615448 0.2291153222322464 
H 0.5821104645729065 -1.370124340057373 0.31589409708976746 
H 1.9999828338623047 -0.1630011349916458 0.8601698875427246 
H 1.6926658153533936 -1.3005152940750122 2.5889124870300293 
H 1.48366117477417 0.5476014614105225 2.6287877559661865 
H -0.5051247477531433 1.196204423904419 1.4793236255645752 
