17

C -1.242470622062683 -1.8360791206359863 -0.2587982714176178 
C -0.3942147493362427 -0.7131879329681396 0.3438626825809479 
C 1.007100224494934 -0.5754635334014893 -0.29306530952453613 
C 0.3907376527786255 1.2772953510284424 -0.6404348611831665 
C 1.3186899423599243 2.10086727142334 0.15459506213665009 
O 1.5466794967651367 0.8739842772483826 0.8145207166671753 
C -0.8722864389419556 0.7456687688827515 0.05433368682861328 
H -1.3531798124313354 -1.7071201801300049 -1.3432133197784424 
H -2.2483155727386475 -1.8531867265701294 0.18324287235736847 
H -0.799076497554779 -2.8243913650512695 -0.07861519604921341 
H -0.2925165891647339 -0.8887816667556763 1.4217585325241089 
H 1.7634196281433105 -1.1714991331100464 0.22442938387393951 
H 1.0207242965698242 -0.7893649935722351 -1.367774486541748 
H 2.175104856491089 2.509697675704956 -0.3963741362094879 
H 0.881356418132782 2.8227920532226562 0.8591673970222473 
H -1.183816909790039 1.2768878936767578 0.970740020275116 
H -1.7179346084594727 0.7518817186355591 -0.6483747363090515 
