17

C -2.1918294429779053 0.4807610809803009 0.576375424861908 
C -0.9872993230819702 -0.2849140167236328 1.0851731300354004 
O -0.8971498012542725 -1.525087833404541 0.8288617134094238 
C 0.6674217581748962 0.8530898094177246 -8.096958481473848e-05 
C 0.9680039286613464 0.11261476576328278 -1.1375595331192017 
C 2.2915420532226562 -0.22873272001743317 -0.4782024025917053 
O 1.874094843864441 0.5599513053894043 0.6948705315589905 
H -2.3267276287078857 0.2854812443256378 -0.5008797645568848 
H -2.1282594203948975 1.5517382621765137 0.7568225264549255 
H -3.0971014499664307 0.0693025216460228 1.0606248378753662 
H -0.4694957733154297 0.15073779225349426 1.9617559909820557 
H -0.3175344467163086 -1.6882765293121338 -0.554725706577301 
H 0.14569976925849915 1.7654987573623657 0.24040259420871735 
H 0.7088262438774109 0.2581252157688141 -2.184645652770996 
H 0.10814383625984192 -1.2481344938278198 -1.1338818073272705 
H 3.1848907470703125 0.17072919011116028 -0.9860461950302124 
H 2.46677303314209 -1.2828840017318726 -0.22886493802070618 
