14

C -0.12588679790496826 -1.3389402627944946 0.9223871827125549 
C -0.8077035546302795 -0.18408185243606567 0.29543375968933105 
C -1.6227976083755493 0.7824276685714722 0.7659488320350647 
O -1.9379440546035767 1.6696010828018188 1.5655219554901123 
C 0.968418538570404 1.7745146751403809 -0.2077556997537613 
C 1.0964806079864502 0.9424417614936829 -1.1502726078033447 
N 1.1712454557418823 0.09288576245307922 -2.169623851776123 
H 0.30883148312568665 -1.0219488143920898 1.9039288759231567 
H 0.6964807510375977 -1.7071428298950195 0.29146474599838257 
H -0.8024376034736633 -2.1903133392333984 1.122409701347351 
H -2.3857128620147705 -0.17790208756923676 0.6163623929023743 
H 1.1047354936599731 2.2102837562561035 0.7610740661621094 
H 1.9967750310897827 -0.5121294856071472 -2.2097630500793457 
H 0.33951446413993835 -0.3396960198879242 -2.5071167945861816 
