12

C -1.2456995248794556 -0.7116042971611023 0.15411119163036346 
O -1.4166162014007568 0.7114545702934265 0.2948635518550873 
C -0.09020614624023438 1.1024887561798096 0.4378949999809265 
C 0.6885539293289185 -0.25795549154281616 -1.1296135187149048 
O 1.477865219116211 -0.6504437327384949 -0.007913751527667046 
C 0.8462244272232056 0.1261425018310547 0.9727548360824585 
H -1.7010141611099243 -1.041613221168518 -0.7833573818206787 
H -1.6318943500518799 -1.2150605916976929 1.0456141233444214 
H 0.015299487859010696 2.1790783405303955 0.6213591694831848 
H 1.184856653213501 0.5242193341255188 -1.7111268043518066 
H 0.3564348518848419 -1.128936767578125 -1.7015076875686646 
H 1.5161958932876587 0.36223065853118896 1.806921362876892 
