14

O 0.3445031940937042 -2.613638401031494 -1.5079803466796875 
C 0.8208721280097961 -1.5892175436019897 -1.018802523612976 
C 0.14334990084171295 -0.7684939503669739 -0.029228881001472473 
C -1.2322044372558594 -0.10280708223581314 -0.22654034197330475 
C -0.7940836548805237 1.0126069784164429 0.7704567909240723 
C 0.6540780067443848 0.4267053008079529 0.7198807001113892 
H 1.8689810037612915 -1.2787904739379883 -1.2356494665145874 
H 1.2233567237854004 0.5465319156646729 -0.3041093647480011 
H -1.4931674003601074 0.2472558468580246 -1.2363991737365723 
H -2.0601916313171387 -0.7352676391601562 0.1413038969039917 
H -1.1987037658691406 0.9036187529563904 1.7832667827606201 
H -0.9040522575378418 2.0468809604644775 0.41670340299606323 
H 1.30930495262146 0.36044031381607056 1.5980033874511719 
H 1.3179570436477661 1.5441744327545166 0.12909546494483948 
