15

C 0.18595176935195923 0.8054707646369934 -1.3748024702072144 
C -0.3156241774559021 0.8872678875923157 -0.044554971158504486 
O 1.3063621520996094 1.6183053255081177 0.6964150071144104 
C -0.47635266184806824 -0.29431548714637756 0.8461201786994934 
C -0.9340664148330688 -1.6021889448165894 0.2852833569049835 
N 0.4538876712322235 -1.4454232454299927 0.7425500154495239 
H 1.2826807498931885 1.3302364349365234 -0.5300045013427734 
H -0.09950034320354462 1.599809169769287 -2.0730042457580566 
H 0.33574479818344116 -0.18548433482646942 -1.8097946643829346 
H -0.951474130153656 1.7405225038528442 0.215433731675148 
H 1.7236088514328003 0.8772130012512207 1.186531662940979 
H -0.7969533205032349 -0.05858665704727173 1.8729002475738525 
H -1.5486980676651 -2.242069721221924 0.92190021276474 
H -1.1651660203933716 -1.6660394668579102 -0.7804682850837708 
H 0.999599039554596 -1.3647176027297974 -0.15450534224510193 
