13

C 1.7630581855773926 0.08181119710206985 0.7467764616012573 
C 0.23970331251621246 0.17918674647808075 0.8807246685028076 
C -0.3581640422344208 0.8113669753074646 -0.3336566388607025 
N -0.013611274771392345 0.5259287357330322 -1.6585956811904907 
C -0.6466661691665649 -0.6354036331176758 -1.8856533765792847 
N -1.690473198890686 -0.6965513229370117 -0.7501646280288696 
O -0.37597906589508057 -0.13628974556922913 1.9115318059921265 
H 2.080122470855713 -0.9174013137817383 1.0635614395141602 
H 2.1107616424560547 0.25409555435180664 -0.27890729904174805 
H 2.205172061920166 0.8063435554504395 1.4462589025497437 
H -1.0542902946472168 1.6561428308486938 -0.1812077760696411 
H -2.6792643070220947 -0.7409412860870361 -1.0729694366455078 
H -1.5803697109222412 -1.1882884502410889 0.1123017743229866 
