12

N 0.14824198186397552 1.0641663074493408 -1.4445512294769287 
C 0.2798120975494385 0.2928750216960907 -0.3339865505695343 
O 1.3288809061050415 -0.5125322937965393 -0.05681872367858887 
C -0.47246015071868896 0.6112598776817322 0.9574080109596252 
O -0.3355787396430969 -0.6584130525588989 1.641950249671936 
C 0.1437038779258728 -1.4471073150634766 0.5601465702056885 
O -0.6245158910751343 -1.336230993270874 -0.503596842288971 
H -0.6057780981063843 0.7974650859832764 -2.0815560817718506 
H 1.0416308641433716 1.266620397567749 -1.9175022840499878 
H -1.5199443101882935 0.8968338966369629 0.7560998797416687 
H 0.040555547922849655 1.4147357940673828 1.5122714042663574 
H 0.5754519104957581 -2.3896729946136475 0.910135805606842 
