14

C 2.1506426334381104 -0.19475609064102173 0.543716311454773 
C 0.8000856637954712 0.16706347465515137 0.003528259228914976 
C -1.509917974472046 -0.2781203091144562 -1.1713961362838745 
C -1.7550041675567627 0.6081514358520508 -0.10627642273902893 
C -0.3600759506225586 -0.19475355744361877 0.6882877945899963 
O -0.6445473432540894 -0.9421494603157043 1.6105087995529175 
H 2.5540974140167236 0.5779972672462463 1.221663475036621 
H 2.1004478931427 -1.135949969291687 1.10735285282135 
H 2.873199701309204 -0.30548301339149475 -0.27869078516960144 
H 0.7306567430496216 0.9331303238868713 -0.764704704284668 
H -0.9971902966499329 0.027890542522072792 -2.079836845397949 
H -1.8284660577774048 -1.317361831665039 -1.1122688055038452 
H -1.5685454607009888 1.6706851720809937 -0.26322004199028015 
H -2.558008909225464 0.38297709822654724 0.5938531756401062 
