14

C 1.561526894569397 -0.4966762959957123 -0.9708300828933716 
O 0.33669424057006836 0.14861036837100983 -1.3216861486434937 
C -0.7097079157829285 -0.36070021986961365 -0.7014437317848206 
C -0.08037138730287552 -0.09282248467206955 1.2391265630722046 
C -1.2536859512329102 0.47042760252952576 0.42582735419273376 
O -1.2615635395050049 1.8590161800384521 0.20212315022945404 
H 1.4906915426254272 -1.5895609855651855 -1.1127194166183472 
H 1.0186243057250977 -0.3899441063404083 0.4972313344478607 
H 2.36679744720459 -0.053671810775995255 -1.570586919784546 
H -0.8083691596984863 -1.4522429704666138 -0.6711094379425049 
H 0.4279082715511322 0.7063986659049988 1.7910319566726685 
H -0.3525733947753906 -0.945256233215332 1.8644599914550781 
H -2.253945827484131 0.17088033258914948 0.75656658411026 
H -0.49098432064056396 2.046288013458252 -0.37024012207984924 
