12

N 2.6355338096618652 -0.83024662733078 -1.472665548324585 
C 1.6614353656768799 -0.5108000636100769 -0.9119002223014832 
C 0.45615050196647644 -0.05246182158589363 -0.26939666271209717 
C 0.24510200321674347 1.3701783418655396 0.10076142847537994 
C -1.0954513549804688 -0.16478389501571655 1.1205514669418335 
C -0.9491351246833801 -0.6783223152160645 -0.31035134196281433 
O 0.5202186703681946 -0.10218584537506104 1.2348623275756836 
H 1.1063507795333862 1.9363774061203003 0.4690885841846466 
H -0.6031154990196228 1.9339110851287842 -0.288410484790802 
H -1.4988927841186523 -0.9004735350608826 1.8475655317306519 
H -0.885471522808075 -1.7653812170028687 -0.435360312461853 
H -1.5927257537841797 -0.23581169545650482 -1.0847444534301758 
