15

C 0.708645224571228 0.7170127034187317 1.5766929388046265 
C -0.3797055184841156 0.968845009803772 0.5828208923339844 
C -0.31189823150634766 -0.038796160370111465 -2.0043346881866455 
C 0.3271644711494446 -0.8959792852401733 -1.1038933992385864 
O 1.5344702005386353 -1.1938402652740479 -0.9229705929756165 
N -0.5594644546508789 -1.247733473777771 0.06017560511827469 
H 0.9144837856292725 1.6642109155654907 2.103243827819824 
H 1.6389117240905762 0.38707226514816284 1.0681949853897095 
H 0.44394728541374207 -0.029497457668185234 2.3386049270629883 
H -1.4176021814346313 0.9149832725524902 0.8929065465927124 
H -0.16632437705993652 1.678092360496521 -0.20580458641052246 
H 0.2345224767923355 0.29592517018318176 -2.8865017890930176 
H -1.3669545650482178 0.2224162220954895 -1.9035639762878418 
H -0.07463476061820984 -1.9832648038864136 0.5867295861244202 
H -1.525560736656189 -1.4594459533691406 -0.1823003739118576 
