17

C 1.2519913911819458 -0.515461266040802 0.9616501927375793 
C 1.1651772260665894 0.666223406791687 0.04037725180387497 
C 1.3143064975738525 -0.8360146284103394 -0.4927078187465668 
C -0.11061905324459076 -0.6558887958526611 -1.0275232791900635 
C -1.3271400928497314 -0.6802616715431213 -0.024416664615273476 
C -1.22740638256073 0.8485517501831055 0.17225199937820435 
C -0.12997719645500183 0.9035120606422424 -0.7883772253990173 
H 2.225468397140503 -0.5136565566062927 1.459228277206421 
H 0.44436734914779663 -0.8820012211799622 1.6024463176727295 
H 0.5970664024353027 1.7644407749176025 1.162202000617981 
H 2.1040902137756348 -1.4042502641677856 -0.987751841545105 
H -0.31498852372169495 -1.034026861190796 -2.0344221591949463 
H -1.3270841836929321 -1.3689191341400146 0.8338119983673096 
H -2.2312731742858887 -0.8866913914680481 -0.6196213960647583 
H -2.1148877143859863 1.4842184782028198 0.2280556559562683 
H -0.30231761932373047 1.5893967151641846 1.2581108808517456 
H -0.020305540412664413 1.6216996908187866 -1.6073083877563477 
