14

O -0.255513995885849 -2.290497064590454 0.026132725179195404 
C -0.11250879615545273 -0.907813310623169 0.3153318464756012 
C -1.1679189205169678 -0.015762099996209145 -0.3021440804004669 
O -1.0225951671600342 1.7248233556747437 0.9760159850120544 
C 0.1335291713476181 1.9218769073486328 0.4282516837120056 
N 0.7715609073638916 1.1595382690429688 -0.4548587203025818 
C 1.1550960540771484 -0.23333685100078583 -0.24742940068244934 
H -0.2101203352212906 -2.401318073272705 -0.9361639022827148 
H -0.14910557866096497 -0.8015319108963013 1.4061273336410522 
H -1.1271424293518066 0.08005964010953903 -1.3875139951705933 
H -2.167574405670166 0.003053986467421055 0.14047515392303467 
H 0.7161193490028381 2.7640225887298584 0.8733195066452026 
H 1.3950833082199097 -0.6574513912200928 -1.2364931106567383 
H 2.041091203689575 -0.34566429257392883 0.3989490866661072 
