14

C 1.1598010063171387 0.366696834564209 1.1815072298049927 
C 0.8360689878463745 -0.47115960717201233 -0.005978304427117109 
C 0.2262130230665207 0.06711407750844955 -1.237670660018921 
C -1.2475619316101074 0.26430395245552063 -0.9380829930305481 
C -1.727690577507019 -0.45269250869750977 0.15674364566802979 
O -2.5179574489593506 -0.18699359893798828 1.0963259935379028 
H 2.217816114425659 0.6795896887779236 1.1668064594268799 
H 0.9888575077056885 -0.15528464317321777 2.134373903274536 
H 0.5595352053642273 1.2900645732879639 1.191726803779602 
H 1.185243844985962 -1.507707118988037 0.01624128594994545 
H 0.708864152431488 1.0348262786865234 -1.4590845108032227 
H 0.3840107321739197 -0.5846647620201111 -2.1133532524108887 
H -1.8526827096939087 0.9061557054519653 -1.5794353485107422 
H -0.9205178022384644 -1.2502491474151611 0.38988038897514343 
