19

C -0.40494927763938904 -1.3356672525405884 -1.3534234762191772 
C 0.778774619102478 -1.0227419137954712 -0.47894927859306335 
O 0.013475348241627216 -1.7698622941970825 1.3705686330795288 
C 0.8096409440040588 -0.1740856170654297 0.6371917724609375 
C 0.9006253480911255 1.4460846185684204 -0.5285451412200928 
C 0.07540785521268845 1.140592336654663 0.6791408658027649 
C -1.4531769752502441 1.159753680229187 0.6073446273803711 
H -1.3496081829071045 -1.0410816669464111 -0.8840279579162598 
H -0.456484317779541 -2.4168457984924316 -1.5522983074188232 
H -0.29361778497695923 -0.8331564664840698 -2.32002592086792 
H 1.6820800304412842 -1.5922867059707642 -0.711978554725647 
H 0.764149010181427 -2.051699161529541 1.9637584686279297 
H 1.7746050357818604 -0.1767532229423523 1.1566412448883057 
H 0.40828633308410645 1.4858338832855225 -1.5033646821975708 
H 1.8610413074493408 1.9645508527755737 -0.42359471321105957 
H 0.4178844392299652 1.6918518543243408 1.5655375719070435 
H -1.8771103620529175 0.4140413701534271 1.299973487854004 
H -1.821158528327942 0.9601763486862183 -0.4090864658355713 
H -1.8298646211624146 2.1512954235076904 0.8851379752159119 
