12

C 0.12526284158229828 -1.1388843059539795 1.3741333484649658 
O 0.13511888682842255 -1.740779995918274 0.10976287722587585 
C -0.6880897283554077 -0.6006656289100647 -1.3733922243118286 
N -0.6017178297042847 0.6059237122535706 -1.4176912307739258 
C 0.22518208622932434 1.6405709981918335 -0.8298583626747131 
H -0.606154203414917 -1.613553762435913 2.0615320205688477 
H -0.10209149867296219 -0.04560314863920212 1.347579002380371 
H 1.1316616535186768 -1.2369722127914429 1.8314090967178345 
H -0.9071574211120605 -1.631789207458496 -1.0493844747543335 
H 0.44614556431770325 2.391869306564331 -1.602498173713684 
H -0.3266274631023407 2.1413848400115967 -0.020796235650777817 
H 1.1684670448303223 1.228499174118042 -0.4307960271835327 
