16

C -1.1678422689437866 -0.8628931641578674 -1.141003131866455 
C -0.3432287573814392 0.4930242896080017 -0.78934645652771 
O 0.360533207654953 0.8966646790504456 -1.8480157852172852 
C 0.4201255142688751 -0.02603306621313095 0.37522900104522705 
C -0.0829148218035698 0.12525252997875214 1.7720130681991577 
C 1.5068728923797607 -0.8770503401756287 0.10854608565568924 
N 2.3781216144561768 -1.672711968421936 0.12350867688655853 
H -1.8509371280670166 -0.5522624850273132 -1.9371594190597534 
H -0.48757684230804443 -1.6249979734420776 -1.5169836282730103 
H -1.7348699569702148 -1.26900053024292 -0.29240676760673523 
H -1.1440832614898682 1.181774616241455 -0.4233884811401367 
H 1.2977004051208496 1.837265968322754 -0.8007214069366455 
H 1.525164246559143 1.8128069639205933 -0.03609124943614006 
H -0.8974523544311523 -0.5802664160728455 1.9886786937713623 
H -0.48343130946159363 1.1483535766601562 1.8974004983901978 
H 0.7038190960884094 -0.029927346855401993 2.519739866256714 
