13

C 1.8550708293914795 -0.2587902545928955 0.7176093459129333 
C 0.6630308032035828 0.5039858222007751 0.16417649388313293 
O 0.4934673607349396 1.7158409357070923 0.3452606201171875 
C -0.21195702254772186 -0.3349416255950928 -0.6811134815216064 
C -1.578872561454773 -0.6167271733283997 -0.16488565504550934 
N -1.6806124448776245 0.575378954410553 -1.0349140167236328 
H 1.5640970468521118 -1.271354079246521 1.0334699153900146 
H 2.3043720722198486 0.29185783863067627 1.551134705543518 
H 2.6026830673217773 -0.37828904390335083 -0.08087190240621567 
H -0.7408237457275391 0.24992476403713226 -1.7523412704467773 
H -1.7792706489562988 -0.3805506229400635 0.8841124773025513 
H -2.1364500522613525 -1.4840224981307983 -0.5301611423492432 
H -1.456195592880249 1.4339549541473389 -0.4996699094772339 
