20

C -3.011704206466675 0.8901622891426086 -0.11750127375125885 
C -1.7662361860275269 0.2175176441669464 0.47887909412384033 
C -0.47403988242149353 0.6173273921012878 -0.23605754971504211 
N 0.7338902354240417 0.08757823705673218 0.4424404799938202 
C 0.9182745814323425 -1.702446699142456 0.23943398892879486 
C 1.763342022895813 -0.5935558080673218 -0.3617667555809021 
C 3.210014581680298 -0.35611262917518616 0.06973312795162201 
H -3.1107828617095947 0.6500375866889954 -1.1862828731536865 
H -3.926222324371338 0.5670657753944397 0.4055202305316925 
H -2.945096969604492 1.986818790435791 -0.03958412632346153 
H -1.8810510635375977 -0.8766677975654602 0.44693106412887573 
H -1.69148588180542 0.48947691917419434 1.5446909666061401 
H -0.3648780584335327 1.7144818305969238 -0.2144099920988083 
H -0.48391759395599365 0.29070043563842773 -1.2822151184082031 
H 0.5654610991477966 -0.7258428931236267 1.2370216846466064 
H 0.1717889904975891 -1.9503185749053955 -0.539592981338501 
H 1.603667140007019 -0.39586547017097473 -1.4347569942474365 
H 3.28309965133667 -0.48603251576423645 1.1580227613449097 
H 3.8625681400299072 -1.0861481428146362 -0.43433114886283875 
H 3.5433099269866943 0.6618236303329468 -0.17617462575435638 
