15

O -0.8040544986724854 -2.0626721382141113 -0.19742508232593536 
C 0.027111593633890152 -1.3403569459915161 -1.086691975593567 
C -0.30182695388793945 0.15234535932540894 -1.080052375793457 
C 0.7707856893539429 1.2445878982543945 -0.90956050157547 
C -0.10840342193841934 0.8609375953674316 0.22117987275123596 
C -0.23347565531730652 0.5327132940292358 1.5679962635040283 
C -0.11893512308597565 0.0330502986907959 2.7846808433532715 
H -0.6269320845603943 -1.7673535346984863 0.6954640746116638 
H 1.1041606664657593 -1.461763858795166 -0.8302972912788391 
H -0.08709525316953659 -1.7424201965332031 -2.104430675506592 
H -1.1699209213256836 0.45041424036026 -1.69613778591156 
H 0.6030850410461426 2.2175233364105225 -1.3670330047607422 
H 1.808645486831665 0.9096484780311584 -0.9062623381614685 
H -1.0630508661270142 1.304589867591858 1.263604760169983 
H 0.1999061405658722 0.6687557697296143 3.644965648651123 
