10

O 0.4803139269351959 -1.8123326301574707 -1.0700221061706543 
C 0.2841077744960785 -0.25910842418670654 -0.42784062027931213 
C 1.1861318349838257 -0.2758530080318451 -1.4326585531234741 
N -0.17119865119457245 0.23471644520759583 2.882683753967285 
N -0.5158258676528931 1.0802733898162842 2.0960261821746826 
C -0.9416547417640686 1.1802395582199097 0.8016594648361206 
N -0.8879626989364624 0.0693383514881134 -0.010152311995625496 
H -0.24717171490192413 -1.8723697662353516 -1.7328214645385742 
H 2.257601737976074 -0.4104979634284973 -1.531260371208191 
H -1.4443415403366089 2.065593719482422 0.42438623309135437 
