14

O -0.30250251293182373 -1.1749885082244873 1.2892862558364868 
C -0.323902428150177 -0.9727047681808472 -0.12220102548599243 
C -1.4102234840393066 -0.09546781331300735 -0.6368944048881531 
C 0.4931553602218628 1.3279207944869995 0.08008837699890137 
C 0.6615580320358276 0.07793639600276947 -0.5377576947212219 
O 2.2879436016082764 0.35865485668182373 0.3637691140174866 
H -1.2054215669631958 -1.4567818641662598 1.5338573455810547 
H -0.2058296650648117 -1.913222074508667 -0.683576226234436 
H -1.8087716102600098 -0.22117525339126587 -1.6414111852645874 
H -1.9986286163330078 0.4792807996273041 0.07515687495470047 
H 0.8325826525688171 2.249783515930176 -0.38221144676208496 
H -0.008649424649775028 1.3814928531646729 1.042679786682129 
H 1.0017191171646118 0.02754557505249977 -1.568585753440857 
H 1.9972585439682007 -0.0778784528374672 1.1949741840362549 
