18

C 1.6559853553771973 -0.4417179524898529 -2.047987461090088 
O -0.5062867403030396 -0.7637197971343994 -1.048209547996521 
C -0.44787925481796265 -0.05577563866972923 0.1986207813024521 
C 0.9414207339286804 -0.2661812901496887 0.8028106689453125 
C -1.5001403093338013 -0.7125855088233948 1.0962916612625122 
C -0.7555627822875977 1.4391309022903442 -0.011667914688587189 
H -0.21345208585262299 -0.3034715950489044 -1.8333327770233154 
H 2.2371714115142822 0.5253446102142334 -2.0035717487335205 
H 2.356431484222412 -1.240416407585144 -1.6928280591964722 
H 1.71867835521698 0.023744793608784676 0.032867565751075745 
H 1.136494755744934 0.3434916138648987 1.6962021589279175 
H 1.1448163986206055 -1.3261817693710327 1.021058440208435 
H -2.4949326515197754 -0.6531174778938293 0.6535196900367737 
H -1.5163710117340088 -0.24378404021263123 2.086503505706787 
H -1.2579517364501953 -1.7842997312545776 1.2381020784378052 
H -1.7408668994903564 1.5817768573760986 -0.47830215096473694 
H 0.0037741411942988634 1.9096126556396484 -0.6629850268363953 
H -0.761329174041748 1.9681495428085327 0.9529078602790833 
