13

N 0.18597978353500366 0.34979838132858276 -1.7657495737075806 
C -0.07125214487314224 -0.09242760390043259 -0.49360522627830505 
O -1.4180643558502197 -0.5914095640182495 -0.060238879173994064 
C 0.9711354970932007 -0.8881401419639587 0.3135983347892761 
O 0.2702407240867615 -0.9782742261886597 1.5622683763504028 
C -0.7145426869392395 -0.09445376694202423 1.2720979452133179 
N -0.03884124755859375 1.270869493484497 0.6908419728279114 
H 0.6225868463516235 1.265684962272644 -1.8822362422943115 
H -0.5192008018493652 0.1429223269224167 -2.4484341144561768 
H 1.1558551788330078 -1.8805677890777588 -0.11796528100967407 
H 1.924778938293457 -0.3511911928653717 0.4258953928947449 
H -1.4577058553695679 0.09091180562973022 2.0609731674194336 
H -0.9109700918197632 1.756277322769165 0.4425535500049591 
