15

C 1.7424099445343018 0.6463932394981384 0.9400304555892944 
N 0.6213049292564392 0.5861886739730835 -0.0010570271406322718 
C -0.4281882643699646 -0.23122566938400269 0.30204102396965027 
C -1.5253573656082153 -0.3870892822742462 -0.6044363379478455 
O -2.1737799644470215 0.4402717649936676 0.848850667476654 
C -0.09223274886608124 -1.6878540515899658 -1.766437292098999 
N 0.9482482075691223 -1.2059383392333984 -2.2268877029418945 
H 2.352491617202759 -0.2729754149913788 0.8996654748916626 
H 2.3655996322631836 1.5073044300079346 0.6794663071632385 
H 1.3608354330062866 0.7438920736312866 1.9705604314804077 
H 0.9743127226829529 0.2762722969055176 -0.9441671371459961 
H -0.3464317321777344 -0.8680012226104736 1.1942297220230103 
H -2.152501344680786 -1.2656255960464478 -0.5890273451805115 
H -1.6889722347259521 0.3285920023918152 -1.3990275859832764 
H -1.9577387571334839 1.3897950649261475 0.6961964964866638 
