15

O 2.0898354053497314 0.45052382349967957 -0.644725501537323 
C 1.14313542842865 0.37641268968582153 0.4290129244327545 
C -0.08995147049427032 1.2407151460647583 0.11938060820102692 
C -1.1685508489608765 0.13676272332668304 -0.07798302173614502 
O -2.3559157848358154 0.17900557816028595 0.6115496754646301 
C -0.48958566784858704 -1.1918903589248657 -0.5754347443580627 
C 0.45038753747940063 -0.9710848331451416 0.5257801413536072 
H 2.619598150253296 -0.36863774061203003 -0.592369019985199 
H 1.6053944826126099 0.6446767449378967 1.392063856124878 
H -0.3784750699996948 1.854976773262024 0.9791865944862366 
H 0.030704062432050705 1.8876869678497314 -0.7600913643836975 
H -2.1845271587371826 0.248491108417511 -0.7071155905723572 
H -1.1590899229049683 -2.050004243850708 -0.47511523962020874 
H -0.08593587577342987 -1.0930867195129395 -1.58956778049469 
H 0.1954137682914734 -1.3754136562347412 1.5063103437423706 
