13

O -0.42991214990615845 -1.5447615385055542 1.5882153511047363 
C 0.02619924023747444 -0.9817746877670288 0.3640696108341217 
C 0.9979758262634277 0.17341913282871246 0.39055249094963074 
C 0.11778108030557632 1.0426303148269653 -0.42345744371414185 
C -1.018108606338501 0.03667275980114937 -0.3162587583065033 
H -0.08289540559053421 -0.9400076866149902 2.287632703781128 
H 0.25037091970443726 -1.8258066177368164 -0.3142417073249817 
H 1.0158822536468506 0.5357335805892944 -1.1568553447723389 
H 2.039757251739502 0.2987283170223236 0.6757649779319763 
H 0.08187519013881683 2.127808094024658 -0.3577784299850464 
H 0.2636050283908844 1.0472570657730103 -1.936176061630249 
H -1.5065535306930542 -0.3022090792655945 -1.240962266921997 
H -1.7559771537780762 0.33231016993522644 0.4394949674606323 
