13

C -1.2863099575042725 -0.8622820377349854 0.19086337089538574 
C -0.06733383983373642 -0.06875081360340118 0.5793473124504089 
C 1.2173138856887817 -0.19205717742443085 -0.28082799911499023 
O 1.6958544254302979 1.1468673944473267 -0.2518792450428009 
C 0.46610158681869507 1.846239447593689 -0.272903710603714 
H -2.170423746109009 -0.5680364966392517 0.7721708416938782 
H -1.1094353199005127 -1.935383915901184 0.38561365008354187 
H -1.5139226913452148 -0.7507944703102112 -0.8777876496315002 
H 0.15815617144107819 -0.1110524982213974 1.655587911605835 
H 0.9422188401222229 -0.5008944272994995 -1.3091894388198853 
H 1.9790934324264526 -0.8838235139846802 0.11506973206996918 
H -0.22984834015369415 1.2722938060760498 0.6305901408195496 
H -0.07242638617753983 1.5356316566467285 -1.2124457359313965 
