14

O 2.07358717918396 -1.0433225631713867 -0.3787716031074524 
C 1.011903166770935 -0.3327164649963379 -0.9337736964225769 
C 0.6316258311271667 0.9148260354995728 -0.3759304881095886 
C -0.8801777362823486 0.3724302351474762 1.1887035369873047 
C -1.7084934711456299 -0.30661502480506897 0.29839232563972473 
O -1.317543387413025 -1.3031554222106934 -0.4482719302177429 
H 1.9861061573028564 -1.0668030977249146 0.5836043953895569 
H -0.1489708572626114 -1.0516878366470337 -0.6958326697349548 
H 1.0080270767211914 -0.43136125802993774 -2.027148723602295 
H 1.2227205038070679 1.3839201927185059 0.4113342761993408 
H 0.04722468927502632 1.6019420623779297 -0.9865612983703613 
H -0.046010032296180725 -0.16964517533779144 1.6588785648345947 
H -1.22263503074646 1.249602198600769 1.7153922319412231 
H -2.6573643684387207 0.182586207985878 -0.01001481618732214 
