10

O -0.365416556596756 1.3664183616638184 -0.49354347586631775 
C -0.8654107451438904 0.05822153761982918 -0.13746659457683563 
C 0.9410937428474426 -0.686957061290741 0.35059428215026855 
O 1.6320186853408813 0.39244386553764343 0.09935732930898666 
H -1.6252715587615967 0.9620074033737183 -0.53429114818573 
H -1.30254065990448 -0.08435622602701187 0.8555827140808105 
H -1.058254361152649 -0.6648975014686584 -0.9359718561172485 
H 0.7768306732177734 -0.9736206531524658 1.4013227224349976 
H 1.0160068273544312 -1.533611536026001 -0.35069286823272705 
H 0.8526009321212769 1.15087890625 -0.25721505284309387 
