10

O -1.320366382598877 1.0374501943588257 2.3836681842803955 
C -0.7348931431770325 -0.16008628904819489 2.2592127323150635 
C 1.5093109607696533 0.44790974259376526 -2.4016449451446533 
N 0.7036066651344299 -0.4069593846797943 -2.059647798538208 
N -0.22741717100143433 -0.7769836783409119 -1.1967663764953613 
C 0.24164646863937378 -0.6934465169906616 0.0976807028055191 
N -0.6820726990699768 -0.7303113341331482 1.0817641019821167 
H -2.2461817264556885 0.9697861075401306 2.0128777027130127 
H 1.5700528621673584 1.5320401191711426 -2.4260687828063965 
H 1.1863141059875488 -1.2193989753723145 0.248924121260643 
