15

C -2.0730509757995605 0.2551053762435913 -0.012016257271170616 
C -0.7366539239883423 -0.4352617859840393 -0.0048729488626122475 
N 0.314077228307724 0.07764163613319397 0.8435138463973999 
C 1.408083200454712 -0.8037984371185303 0.7115687131881714 
C 1.9057775735855103 -0.3474760353565216 -0.5413528680801392 
N 1.7649954557418823 1.1166694164276123 -0.5589705109596252 
C 0.7954627275466919 1.3106918334960938 0.2565636932849884 
H -2.627483367919922 -0.054941777139902115 -0.9095065593719482 
H -2.692166328430176 -0.016639241948723793 0.8611517548561096 
H -1.9804648160934448 1.3486889600753784 -0.03174101188778877 
H 0.6524990797042847 -0.5793625116348267 -1.1252907514572144 
H -0.8043347001075745 -1.528913140296936 0.010361069813370705 
H 1.1963077783584595 -1.8503342866897583 0.9325041174888611 
H 2.74562931060791 -0.7608224153518677 -1.0985243320465088 
H 0.29352691769599915 2.250173568725586 0.4637060761451721 
