12

C -0.6152211427688599 -1.1929874420166016 -0.01300552487373352 
C 0.25641247630119324 -0.2853419780731201 0.8203721642494202 
O 1.4271306991577148 -0.0078577334061265 -0.020556854084134102 
C 0.7676988840103149 0.7044008374214172 -1.06108820438385 
O -0.14399564266204834 1.5953422784805298 -0.4682965874671936 
C -0.5241280794143677 0.9692350029945374 0.6393634676933289 
H -0.10592786222696304 -2.109208583831787 -0.35338857769966125 
H -1.6426552534103394 -1.3497496843338013 0.33387669920921326 
H 0.6063527464866638 -0.5449844002723694 1.8351225852966309 
H 1.457918643951416 1.1884324550628662 -1.751847505569458 
H -0.15051308274269104 -0.3195185959339142 -1.2157175540924072 
H -1.3330720663070679 1.3522379398345947 1.255165934562683 
