14

C 1.1789352893829346 0.3550247550010681 -0.8107253909111023 
C 0.6659354567527771 0.22565695643424988 0.6067312955856323 
C -0.7945985198020935 0.7547542452812195 0.5645604133605957 
C -1.2989603281021118 -0.22356076538562775 -0.48951590061187744 
O -0.8194067478179932 -1.4714174270629883 -0.06230910122394562 
C 0.3632340729236603 -1.252777338027954 0.5010046362876892 
H 1.0830392837524414 1.33251953125 -1.2964080572128296 
H 2.106459379196167 -0.16396009922027588 -1.0462409257888794 
H 1.2632884979248047 0.5622643828392029 1.4602710008621216 
H -0.8541259169578552 1.8015273809432983 0.24277573823928833 
H -1.3159949779510498 0.6290053129196167 1.5293169021606445 
H -0.16108158230781555 -0.011074019595980644 -1.3124629259109497 
H -2.353337049484253 -0.2885497808456421 -0.7648762464523315 
H 1.006885290145874 -2.1232681274414062 0.5809425711631775 
