14

C -1.6357454061508179 -0.8589642643928528 -0.30527156591415405 
N -0.5230485796928406 0.03727375343441963 0.051989153027534485 
C -0.8186516165733337 1.2408604621887207 0.7235878109931946 
O -1.9387742280960083 1.548523187637329 1.0799801349639893 
C 0.7688018083572388 -0.25323760509490967 -0.2918487787246704 
O 1.0082390308380127 -1.233980417251587 -1.1205284595489502 
C 2.0046043395996094 0.2945583164691925 0.18207436800003052 
H -2.401418685913086 -0.7750187516212463 0.4716053307056427 
H -2.0672767162323 -0.563724160194397 -1.269210934638977 
H -1.2536752223968506 -1.8799140453338623 -0.3761122524738312 
H 0.08743520081043243 1.8540892601013184 0.8772568106651306 
H 2.5389177799224854 0.8578240275382996 -0.5900517702102661 
H 2.1411619186401367 -1.021314024925232 -0.6214983463287354 
H 2.0776596069335938 0.7368224263191223 1.1771175861358643 
