18

C -1.8334556818008423 1.17485511302948 -0.3217698633670807 
C -0.6064425706863403 1.1724066734313965 0.6232730746269226 
C 0.6726564168930054 0.8208267688751221 -0.09771140664815903 
C 0.9601008892059326 -0.43317729234695435 -0.6895617246627808 
C 0.03340189531445503 -1.7943236827850342 -0.13682501018047333 
C 1.4407892227172852 -1.6669251918792725 0.00971353892236948 
H -2.7476155757904053 1.4383498430252075 0.2265559881925583 
H -1.6807217597961426 1.9035577774047852 -1.1338297128677368 
H -1.9716994762420654 0.1903795301914215 -0.788765549659729 
H -0.7717235088348389 0.4863821268081665 1.4670414924621582 
H -0.4941898286342621 2.1756038665771484 1.0699787139892578 
H 1.21318781375885 1.6579113006591797 -0.5464184880256653 
H 1.7633898258209229 0.15526829659938812 1.547565221786499 
H 1.1644606590270996 -0.4111184775829315 -1.7614694833755493 
H -0.4351949095726013 -2.4710850715637207 -0.8731432557106018 
H -0.6580362319946289 -1.4035561084747314 0.5994240641593933 
H 2.0959973335266113 -2.333041191101074 -0.5674418210983276 
H 1.855095386505127 -0.6623144745826721 1.3733842372894287 
