11

C -2.298713207244873 -0.20292697846889496 -0.7170603275299072 
C -0.9036681652069092 -0.020914150401949883 -0.33427003026008606 
C 0.2591233253479004 0.13984720408916473 -0.001572219654917717 
C 1.5993949174880981 0.33567872643470764 0.4572341740131378 
C 2.7980566024780273 0.18162448704242706 -0.9891076683998108 
N 2.8602447509765625 -0.8536059856414795 -0.3722989857196808 
H -2.6839728355407715 0.674627423286438 -1.2564300298690796 
H -2.929804563522339 -0.36365923285484314 0.1699693650007248 
H -2.411377429962158 -1.0814321041107178 -1.3697739839553833 
H 1.891772747039795 1.3825429677963257 0.5710460543632507 
H 1.8373939990997314 -0.21254336833953857 1.3727426528930664 
