12

O -1.744134783744812 0.8136974573135376 -0.2357340008020401 
C -1.0851678848266602 -0.39527180790901184 0.11647558212280273 
C 0.37104594707489014 -0.13118290901184082 -0.2847992479801178 
O 0.6223126649856567 -0.028847720474004745 -1.5810503959655762 
C 1.1257007122039795 0.7748647332191467 0.732512891292572 
O 1.8714516162872314 1.6635980606079102 0.3947255611419678 
H -1.5351194143295288 0.9612773656845093 -1.182165265083313 
H -1.4685300588607788 -1.2763121128082275 -0.4240705668926239 
H -1.2157139778137207 -0.535015881061554 1.1963907480239868 
H 1.04636812210083 -1.364927053451538 0.20277486741542816 
H 1.0628347396850586 -1.1146059036254883 -0.793986976146698 
H 0.9238523244857788 0.5076767206192017 1.7995367050170898 
