16

C -0.6592311263084412 -0.37507230043411255 1.6718910932540894 
C -0.7676721215248108 -0.5598653554916382 0.19258832931518555 
C -0.8716312646865845 0.5485098958015442 -0.6998453140258789 
C 0.7279514074325562 1.341914415359497 -0.959546685218811 
O 1.4896451234817505 0.6157756447792053 -1.7506914138793945 
C 1.2910264730453491 -1.5461992025375366 -0.373261958360672 
N 1.5822628736495972 -2.411576747894287 0.3815176486968994 
H -1.67112398147583 -0.3841419219970703 2.1185407638549805 
H -0.06838355213403702 -1.1691601276397705 2.13598370552063 
H -0.20154520869255066 0.6059011220932007 1.923712134361267 
H -1.0837821960449219 -1.5476840734481812 -0.15270625054836273 
H -1.1741745471954346 0.32294154167175293 -1.7249802350997925 
H -1.4346942901611328 1.3897322416305542 -0.26397886872291565 
H 0.32430753111839294 2.274139404296875 -1.4089800119400024 
H 1.0524016618728638 1.5049253702163696 0.075759656727314 
H 1.4646434783935547 -0.6101399660110474 -1.1660027503967285 
