7

O -1.014793038368225 -0.7323638796806335 0.8711063861846924 
C 0.8359721899032593 0.2308935970067978 -0.5440196990966797 
C -0.222943976521492 1.0752942562103271 -0.2937204837799072 
N -1.2639669179916382 1.4451704025268555 0.11791441589593887 
H -0.6984068751335144 -1.6536200046539307 0.9946316480636597 
H 1.6515165567398071 0.18032827973365784 0.15024001896381378 
H 0.7126221656799316 -0.5457028746604919 -1.2961523532867432 
