18

C 0.9786890149116516 -1.3455967903137207 0.3841124475002289 
C -0.19933553040027618 -0.406180739402771 0.5229315757751465 
C -1.5276832580566406 -0.9569321870803833 0.3190855383872986 
C -0.009630518965423107 1.0301845073699951 -0.05070698261260986 
C -0.22551403939723969 1.0103075504302979 -1.5950082540512085 
C 1.316870093345642 1.5532617568969727 0.28300467133522034 
N 2.3655059337615967 1.9375739097595215 0.6547197699546814 
H 1.8739943504333496 -0.9317319393157959 0.8714409470558167 
H 1.1748263835906982 -1.5002477169036865 -0.6823946237564087 
H 0.7659445405006409 -2.3190321922302246 0.8401495218276978 
H 0.037746649235486984 0.007630316540598869 2.037431001663208 
H -0.9098345637321472 -0.493074893951416 1.5673041343688965 
H -2.3697774410247803 -0.2856989800930023 0.14602699875831604 
H -1.6373658180236816 -2.0380783081054688 0.23329798877239227 
H -0.7830397486686707 1.678770899772644 0.3909030258655548 
H -1.234449028968811 0.662948489189148 -1.8391430377960205 
H -0.11475618928670883 2.0293314456939697 -1.9863375425338745 
H 0.4978090524673462 0.3665653169155121 -2.0968174934387207 
