17

O 0.5237935781478882 1.1041918992996216 -2.3201305866241455 
C 0.02895195409655571 -0.11122523993253708 -1.7428277730941772 
C 0.5247547030448914 -0.26127901673316956 -0.3328604996204376 
C -1.342600703239441 -0.6987928748130798 1.0102015733718872 
C -0.8015568852424622 -0.36612391471862793 2.233138084411621 
O 1.3172961473464966 0.7405267357826233 1.7111215591430664 
C 1.0270321369171143 0.8554953336715698 0.46496257185935974 
H 0.3447609841823578 1.0356242656707764 -3.298215389251709 
H 0.28378555178642273 -1.008985996246338 -2.3266685009002686 
H -1.082131028175354 -0.07612039893865585 -1.717635154724121 
H 0.887832760810852 -1.2364846467971802 -0.003496706485748291 
H -2.0005431175231934 -0.01619908958673477 0.4680316746234894 
H -1.3411413431167603 -1.7361215353012085 0.6721779704093933 
H -0.9414767622947693 0.6231678128242493 2.6752002239227295 
H -0.20297518372535706 -1.0607569217681885 2.8134169578552246 
H 0.8500511646270752 1.8397552967071533 -0.006395709700882435 
H 1.924166202545166 0.3733280599117279 -0.300020307302475 
