19

C 1.3199634552001953 -1.5053322315216064 2.0284743309020996 
O 1.3509376049041748 0.5171267986297607 0.19961754977703094 
C 0.06455327570438385 0.6535631418228149 0.4922282099723816 
C -0.6152775287628174 -0.7082838416099548 0.47703981399536133 
C -0.7466236352920532 1.4233015775680542 -0.7014176845550537 
C -0.7601946592330933 0.6815399527549744 -2.0530574321746826 
O 0.5121622681617737 0.2060556411743164 -2.4305200576782227 
H 0.8701051473617554 -2.3913938999176025 2.506509780883789 
H 1.5381548404693604 -0.6719945073127747 2.7027089595794678 
H 2.038731575012207 -1.6833491325378418 1.2189756631851196 
H -0.2099207490682602 1.231985330581665 1.3923187255859375 
H -1.6755200624465942 -0.7951634526252747 0.7205698490142822 
H 0.04579737037420273 -1.1210834980010986 1.4344723224639893 
H -0.2877371311187744 -1.3272117376327515 -0.3721500337123871 
H -1.7581747770309448 1.6866949796676636 -0.35826367139816284 
H -0.15335588157176971 2.341911792755127 -0.7750289440155029 
H -1.5038089752197266 -0.14023365080356598 -2.0292112827301025 
H -1.1314634084701538 1.4064579010009766 -2.810302734375 
H 1.1016710996627808 0.19540853798389435 -1.6429640054702759 
