15

C -0.5037721395492554 1.42598557472229 -0.09966699779033661 
C 0.10827544331550598 0.09232403337955475 0.24218207597732544 
O 1.1353996992111206 0.18795955181121826 1.2361347675323486 
C -0.873414933681488 -1.0456476211547852 0.6590578556060791 
O -1.3103067874908447 -0.8263655304908752 1.9798014163970947 
C 0.5301117300987244 0.07117460668087006 -1.1779651641845703 
C 1.3357561826705933 -0.6701526045799255 -1.9804667234420776 
H 0.08657682687044144 2.3218283653259277 0.11087807267904282 
H -1.5893172025680542 1.5293453931808472 -0.17218129336833954 
H 0.02323743887245655 0.984449028968811 -1.6792023181915283 
H 1.9853264093399048 -0.03159425035119057 0.7912306785583496 
H -0.34252554178237915 -2.0079636573791504 0.5099714398384094 
H -1.7355821132659912 -1.052196741104126 -0.027902403846383095 
H -0.5021859407424927 -0.796308696269989 2.5200095176696777 
H 1.6524207592010498 -0.1828373372554779 -2.9118809700012207 
