14

C 1.487003207206726 0.14071612060070038 -0.6032811403274536 
C 0.5315784215927124 -0.7966795563697815 0.10680386424064636 
C -0.6374606490135193 -0.2062634825706482 0.8518190383911133 
O -0.6061370968818665 1.2317919731140137 0.9453573226928711 
C -1.3830549716949463 -0.7189874053001404 -0.3894602060317993 
O -1.5931423902511597 0.3475152552127838 -1.2468749284744263 
H 2.1523733139038086 0.6494141221046448 0.11492792516946793 
H 0.9235508441925049 0.9236409664154053 -1.1349453926086426 
H 2.1102733612060547 -0.40757763385772705 -1.3267364501953125 
H 0.955312192440033 -1.6996568441390991 0.5585920810699463 
H -0.8892560601234436 -0.7017186284065247 1.7994426488876343 
H -1.0421981811523438 1.4845894575119019 1.7745726108551025 
H -0.3309483826160431 -1.378354549407959 -0.7922437191009521 
H -1.6778934001922607 1.1315703392028809 -0.6579734086990356 
