11

C 0.18207228183746338 1.4770649671554565 -0.48685622215270996 
C -0.1500270962715149 0.10056280344724655 0.009394582360982895 
C -0.08186732977628708 -1.102609395980835 -0.7328461408615112 
O -0.6188039183616638 -2.194943904876709 -0.4187983274459839 
C 0.0618046410381794 -0.9701915979385376 1.8146694898605347 
N -0.35493603348731995 0.13570702075958252 1.509021282196045 
H -0.6197570562362671 2.188443183898926 -0.25151026248931885 
H 0.3274669945240021 1.4553287029266357 -1.570291519165039 
H 1.10840904712677 1.8812816143035889 -0.03802606463432312 
H 0.455894410610199 -0.9782055616378784 -1.6921961307525635 
H -0.31025585532188416 -1.9924379587173462 1.8574391603469849 
