19

C -0.2552768290042877 -1.0530006885528564 1.747998833656311 
C 0.2205275446176529 -0.056844353675842285 0.674724280834198 
C 0.4891248345375061 1.339308500289917 1.2818565368652344 
C -0.7832804918289185 0.0353524275124073 -0.45339348912239075 
C -0.400943398475647 0.604947566986084 -1.7845290899276733 
C -0.23458991944789886 -0.8728180527687073 -2.118588447570801 
O 1.110425353050232 -1.2345688343048096 -1.9887765645980835 
H 0.5095592737197876 -1.1954503059387207 2.519211769104004 
H -1.1607842445373535 -0.6606684327125549 2.253507614135742 
H -0.49207738041877747 -2.0292603969573975 1.3201956748962402 
H 1.1637961864471436 -0.43116119503974915 0.24587340652942657 
H 0.827559232711792 2.0590660572052 0.5227764248847961 
H 1.2648285627365112 1.280439853668213 2.0515365600585938 
H -0.42642271518707275 1.7466633319854736 1.7461127042770386 
H -1.8403167724609375 0.11435980349779129 -0.15730728209018707 
H 0.5346716046333313 1.1893413066864014 -1.7798601388931274 
H -1.198685884475708 1.1048214435577393 -2.343101978302002 
H -0.8801652193069458 -1.2538988590240479 -1.059463381767273 
H 1.552049994468689 -0.6866294145584106 -2.6787726879119873 
