11

O 0.17031815648078918 -0.8426554203033447 -1.8321951627731323 
C 0.2802027463912964 0.26615509390830994 -1.0189788341522217 
C -0.7883352637290955 0.9869717955589294 -0.6273316144943237 
C 0.49811163544654846 -0.9386844635009766 0.9735338091850281 
O -0.4555729925632477 -0.7015336751937866 1.8849126100540161 
H 0.3987153470516205 -1.6129019260406494 -1.246085286140442 
H 1.3123855590820312 0.6396336555480957 -0.9148277044296265 
H -1.7797602415084839 0.5420269966125488 -0.727345883846283 
H -0.7036752700805664 2.0076465606689453 -0.2607634961605072 
H 1.4534516334533691 -0.48995739221572876 1.370306372642517 
H -0.3858411908149719 0.1432991325855255 2.398775100708008 
