14

C 1.8507252931594849 -0.6840353608131409 0.01468555349856615 
C 0.8365445137023926 0.14241397380828857 -0.7465006709098816 
C -1.353574514389038 -0.19016487896442413 0.1610279530286789 
N -2.152411699295044 0.7613543272018433 -0.4251779317855835 
C -0.9326247572898865 -0.009696939028799534 1.5044902563095093 
N -0.5537346005439758 0.11275111883878708 2.625197172164917 
H 1.7046459913253784 -0.6136040091514587 1.0990337133407593 
H 1.8016821146011353 -1.748786211013794 -0.2576705515384674 
H 2.8766257762908936 -0.3238053023815155 -0.21039317548274994 
H 0.8516020774841309 0.005435285624116659 -1.8402687311172485 
H 0.8163305521011353 1.1970632076263428 -0.4630467891693115 
H -0.4070375859737396 -0.5481657385826111 -0.5232763886451721 
H -2.514486312866211 1.515096664428711 0.15803106129169464 
H -2.824286937713623 0.3841441869735718 -1.0961318016052246 
