15

C 0.9660298228263855 -1.2738521099090576 0.441084623336792 
C 0.019636787474155426 -0.585735023021698 -0.5408722758293152 
O -0.5562139749526978 -1.5181074142456055 -1.4508585929870605 
C -0.8587427735328674 0.45426028966903687 -0.10481807589530945 
O 0.12294019758701324 1.8670485019683838 -0.983025848865509 
C -0.9281455278396606 0.9355276226997375 1.3065673112869263 
O -1.9963101148605347 1.1626406908035278 1.8695001602172852 
H 0.43177494406700134 -1.9473469257354736 1.1218197345733643 
H 1.7206461429595947 -1.8502624034881592 -0.10519664734601974 
H 1.5155060291290283 -0.5469768643379211 1.0505359172821045 
H 0.6377886533737183 0.6226938962936401 -1.0010151863098145 
H -0.1610570251941681 -1.2730110883712769 -2.3334333896636963 
H -1.764313817024231 0.6458296179771423 -0.6816850900650024 
H 0.7826541066169739 2.2698442935943604 -0.3751283586025238 
H 0.0678064152598381 1.0374478101730347 1.7865253686904907 
