15

C -0.22661688923835754 -1.3096611499786377 -0.7506038546562195 
C -1.174193263053894 -0.3544824421405792 -0.1588752716779709 
O -1.0207852125167847 1.044693946838379 -0.2350604087114334 
C 0.3743327856063843 1.4186546802520752 -0.5596472024917603 
C 1.4116114377975464 0.881088137626648 0.35522377490997314 
O -0.1016395166516304 -0.19098332524299622 2.032677412033081 
C -0.7568000555038452 -0.8744478821754456 1.2396620512008667 
H -0.6081272959709167 -2.318361520767212 -0.9443614482879639 
H 0.7188325524330139 -1.0288352966308594 -1.225250005722046 
H -2.229437828063965 -0.5946826338768005 -0.36811819672584534 
H 0.35699209570884705 2.5217716693878174 -0.4379287660121918 
H 0.5734377503395081 1.1512781381607056 -1.5994020700454712 
H 1.5739636421203613 1.370119571685791 1.3080101013183594 
H 2.1748220920562744 0.21291902661323547 -0.038672178983688354 
H -1.066392183303833 -1.9290711879730225 1.3823461532592773 
