13

C -0.8661516308784485 0.30591657757759094 -0.3694702088832855 
C -0.7164725065231323 -0.47681623697280884 0.9100961089134216 
O 0.5601509809494019 -0.8512661457061768 1.1588166952133179 
C 1.62142813205719 -0.4704754054546356 0.32646816968917847 
N 1.6271227598190308 0.5300583839416504 -0.458112508058548 
C 0.3543499708175659 1.241808533668518 -0.5326716303825378 
H -1.7948039770126343 0.9074437618255615 -0.34906139969825745 
H -0.9126469492912292 -0.3348413109779358 -1.2799115180969238 
H -1.4966970682144165 -1.4610552787780762 1.019291877746582 
H -1.5498484373092651 -2.1075708866119385 0.30545538663864136 
H 2.512937068939209 -1.055566668510437 0.559110164642334 
H 0.32401201128959656 1.7294365167617798 -1.5215046405792236 
H 0.3366197347640991 2.0429282188415527 0.2314932942390442 
