14

C -0.8330584168434143 0.2601063847541809 -1.5719341039657593 
C -0.5133519172668457 -1.0167732238769531 0.41703107953071594 
O -0.2985318899154663 -2.255840539932251 0.04213712736964226 
C 0.7096855044364929 -0.29849720001220703 0.8419235348701477 
O 1.7376248836517334 -0.9627397060394287 1.009230136871338 
C 0.5741313099861145 1.1659433841705322 1.1728739738464355 
H -1.3831381797790527 1.206457257270813 -1.4516546726226807 
H -1.3403984308242798 -0.4039549231529236 -2.279420852661133 
H 0.22658520936965942 0.40569135546684265 -1.7846242189407349 
H -1.1613807678222656 -0.31938719749450684 -0.40951964259147644 
H 0.6527846455574036 -2.4362828731536865 0.2722747325897217 
H -0.43774667382240295 1.4138176441192627 1.5353498458862305 
H 1.3176400661468506 1.4470407962799072 1.928058385848999 
H 0.7491546869277954 1.7944186925888062 0.27827486395835876 
