19

C -2.461449384689331 0.44091564416885376 0.3697720468044281 
C -1.0636039972305298 0.7506957054138184 -0.17186933755874634 
C -0.3955094814300537 -1.0730115175247192 -0.5421497225761414 
C 0.3232259750366211 -0.2502966523170471 0.38059166073799133 
C 2.5226237773895264 -0.8750616312026978 0.5093612670898438 
C 1.7267231941223145 0.23236745595932007 0.013720870949327946 
O 1.8177160024642944 0.48710116744041443 -1.419862985610962 
H -3.004624605178833 -0.2654264569282532 -0.26959457993507385 
H -2.4006388187408447 0.007601041812449694 1.3781676292419434 
H -3.0476980209350586 1.369354248046875 0.4444863796234131 
H -0.6829643249511719 1.6507467031478882 0.34653714299201965 
H -1.0595248937606812 0.9874535799026489 -1.2418025732040405 
H -0.0914301872253418 -1.0574777126312256 -1.585018515586853 
H -1.0653393268585205 -1.8689616918563843 -0.21202561259269714 
H 0.11962888389825821 -0.3612300455570221 1.4468451738357544 
H 2.2724668979644775 -1.8960975408554077 0.22845594584941864 
H 3.2795748710632324 -0.7170391082763672 1.273125171661377 
H 1.9544905424118042 1.1528767347335815 0.579336404800415 
H 1.2811027765274048 1.2874501943588257 -1.599852442741394 
