15

O -0.6002905368804932 -0.03755425289273262 2.6265456676483154 
C 0.06750525534152985 0.06880311667919159 1.5880416631698608 
C -0.04406255483627319 1.1896686553955078 0.6134493947029114 
C -1.1460888385772705 1.0843253135681152 -0.3365747332572937 
C 0.05325969681143761 -1.18682861328125 -1.4459307193756104 
C 1.071677327156067 -1.0541725158691406 -0.52400803565979 
C 0.9499719142913818 -0.8490498661994934 0.8717168569564819 
H 0.8317278623580933 1.7842499017715454 0.343478262424469 
H -1.0815554857254028 1.9973719120025635 0.6512975692749023 
H -1.9902311563491821 0.4405333995819092 -0.08360210806131363 
H -1.1461410522460938 1.6312193870544434 -1.274669885635376 
H -0.9690341949462891 -1.3871771097183228 -1.1149470806121826 
H 0.23345611989498138 -1.221602201461792 -2.5245182514190674 
H 2.114323377609253 -1.070895791053772 -0.9041709303855896 
H 1.6554824113845825 -1.3888920545578003 1.5138927698135376 
