15

C -0.7165815830230713 1.672271966934204 -0.8967896103858948 
C -0.8602039813995361 0.6756191849708557 0.1319112330675125 
C 0.3035707175731659 -0.1639491617679596 0.5617904663085938 
C 0.07442724704742432 -1.3424760103225708 1.4873985052108765 
O 0.5697120428085327 -0.10072527825832367 1.9940494298934937 
C 1.4014145135879517 -0.30333182215690613 -0.36648720502853394 
C 2.344666004180908 -0.5513856410980225 -1.108635663986206 
H 0.15952838957309723 1.687855839729309 -1.5344635248184204 
H -1.5373576879501343 2.3779964447021484 -1.020595669746399 
H -1.3331619501113892 0.308148056268692 -1.0336573123931885 
H -1.7204015254974365 -0.7028899788856506 -0.3885607421398163 
H -1.5780738592147827 0.8884975910186768 0.9095332026481628 
H 0.8107354640960693 -2.1603245735168457 1.4821910858154297 
H -0.9590423703193665 -1.623255729675293 1.7029471397399902 
H 3.040768623352051 -0.6620509624481201 -1.9206314086914062 
