9

O -0.35640737414360046 -1.142112135887146 -2.1972031593322754 
C -0.2717445492744446 -0.4205227792263031 -1.2001621723175049 
C 0.5491939783096313 -0.6872814893722534 -0.04172893613576889 
C -0.06333643943071365 0.8866956830024719 1.126957893371582 
O 1.092674732208252 0.3931194841861725 0.6578096151351929 
H -0.9410350322723389 0.46772944927215576 -1.0354429483413696 
H 1.0418481826782227 -1.6443603038787842 0.12604741752147675 
H -0.3223014175891876 1.9275389909744263 0.8728607892990112 
H -0.7288920879364014 0.2191929668188095 1.6908612251281738 
