13

N -2.2029614448547363 0.5414772629737854 -0.13375411927700043 
C -0.8844992518424988 0.3273985981941223 -0.26600462198257446 
C -0.6849177479743958 -1.0952868461608887 0.006301946006715298 
N 0.6900623440742493 -1.148145318031311 0.4661006033420563 
C 1.2612481117248535 0.061077240854501724 0.227204829454422 
O 2.5519697666168213 0.23395398259162903 0.5954694151878357 
C 0.3529196083545685 1.0073692798614502 -0.28388163447380066 
H -2.6640069484710693 1.2778640985488892 -0.6843565106391907 
H -2.1173975467681885 -0.7757816314697266 0.2928394377231598 
H -0.8350074887275696 -1.7268633842468262 -0.8835735321044922 
H 1.2324260473251343 -1.9952043294906616 0.5806406736373901 
H 2.794565439224243 1.1547856330871582 0.3842330276966095 
H 0.5270320773124695 2.0768063068389893 -0.34357449412345886 
