9

N -0.03233027458190918 -0.5961061120033264 0.9119912385940552 
C -0.5062915682792664 0.6756914258003235 0.7573468089103699 
C -0.2538500428199768 1.129088282585144 -0.5613855123519897 
C 0.5234994292259216 -0.05777575820684433 -1.0264536142349243 
N 0.7211331725120544 -1.0738775730133057 -0.08296435326337814 
H -0.18480685353279114 -1.2107524871826172 1.7129770517349243 
H -0.7973966598510742 1.2446191310882568 1.633896827697754 
H -0.6153293251991272 -0.005691235885024071 -1.4220186471939087 
H 1.1453720331192017 -0.10519580543041229 -1.9233899116516113 
