16

C 0.662011444568634 -0.8033075332641602 2.324033260345459 
C 0.0035535371862351894 0.019273236393928528 1.2806044816970825 
C -0.3869147300720215 1.1079237461090088 0.7843111753463745 
C -0.477175235748291 1.6073949337005615 -0.5723192691802979 
C 0.202623650431633 0.33548569679260254 -1.409585952758789 
C -0.14499688148498535 -0.8767783045768738 -0.588219404220581 
N -0.2428636997938156 -0.17269417643547058 -2.6303441524505615 
H -0.04414159432053566 -1.5775752067565918 2.682644844055176 
H 1.554425597190857 -1.3261727094650269 1.941872000694275 
H 0.9753316640853882 -0.19970278441905975 3.1835556030273438 
H -1.5159326791763306 1.761961817741394 -0.9216625690460205 
H 0.10423868149518967 2.509451389312744 -0.7852727174758911 
H 1.2790647745132446 0.5475969314575195 -1.3968740701675415 
H 0.4950175881385803 -1.7595165967941284 -0.6917524337768555 
H -1.2082550525665283 -1.1002426147460938 -0.5256592035293579 
H -1.2559871673583984 -0.07309795916080475 -2.675330400466919 
