12

C -0.5896108150482178 -0.4220631718635559 1.1481419801712036 
C 0.6283729672431946 0.2792774736881256 0.594578742980957 
N 1.3629848957061768 -0.3437337577342987 -0.5299848318099976 
C 0.7051945328712463 0.7542940974235535 -1.2244246006011963 
C -0.5202303528785706 0.5026378035545349 -1.8905997276306152 
N -1.494077205657959 0.3025040328502655 -2.54473876953125 
H -1.2484878301620483 -0.7662491202354431 0.34126806259155273 
H -1.160407543182373 0.22087910771369934 1.8187634944915771 
H -0.2679556608200073 -1.32228422164917 1.7079637050628662 
H 1.35556161403656 0.6743180155754089 1.3240907192230225 
H 0.9010156989097595 -1.2162413597106934 -0.7841951251029968 
H 0.3276396095752716 1.3366611003875732 0.03913658857345581 
