9

O 0.9681500196456909 -1.740746021270752 -0.6143118143081665 
C 0.4588147699832916 -0.5315947532653809 -0.6358333230018616 
N 0.9965172410011292 0.6770652532577515 -0.7436055541038513 
N 0.31659996509552 1.401712417602539 0.22782371938228607 
N -0.6692138314247131 0.7961641550064087 0.8644158840179443 
C -0.687846302986145 -0.49260422587394714 0.34702974557876587 
H 0.11681535094976425 -1.6330548524856567 0.5448813438415527 
H 0.175099179148674 2.3936171531677246 -0.02454199828207493 
H -1.6749366521835327 -0.8705589771270752 0.03414185345172882 
