12

C -1.9542361497879028 0.4965871572494507 -0.3579464554786682 
C -0.6864727139472961 -0.21634641289710999 -0.224428191781044 
C 0.0247342549264431 -1.2657256126403809 -0.370324969291687 
C 1.313661813735962 -1.6619961261749268 -0.11988507956266403 
O 2.163469076156616 -2.4886622428894043 -0.14663061499595642 
C 1.4593548774719238 0.7658374905586243 0.7505707740783691 
H -1.817044734954834 1.4034324884414673 -0.9657124280929565 
H -2.734978437423706 -0.12765631079673767 -0.8211455941200256 
H -2.306286096572876 0.8293448686599731 0.6301447153091431 
H 1.444360613822937 0.707425594329834 -0.32361721992492676 
H 0.9232136607170105 0.11518750339746475 1.4190399646759033 
H 2.0616886615753174 1.5602545738220215 1.2002310752868652 
