14

O 1.7232556343078613 -1.2519075870513916 -0.693832278251648 
C 1.0362708568572998 -0.1909285932779312 -0.09899144619703293 
C 0.34396567940711975 1.8884751796722412 -0.6695660352706909 
N -0.8684538006782532 1.2158547639846802 -0.4238117039203644 
C -0.5108447670936584 -0.2079695165157318 -0.31091776490211487 
C -1.23502516746521 -0.9770851135253906 0.7754082679748535 
O -1.2390732765197754 -2.2093751430511475 0.7856127023696899 
H 1.2778706550598145 -2.080185890197754 -0.3683595657348633 
H 1.336388349533081 0.021908897906541824 0.927631139755249 
H 0.7339837551116943 2.389641046524048 0.2379186600446701 
H 1.2400224208831787 0.913465678691864 -0.8038498759269714 
H -1.4394065141677856 1.5191665887832642 0.37213027477264404 
H -0.7035592794418335 -0.6737670302391052 -1.2951550483703613 
H -1.6953943967819214 -0.35729336738586426 1.5657827854156494 
