15

C 1.783721685409546 -0.9165558815002441 -0.7247170805931091 
C 0.4393380582332611 0.1939457207918167 0.6619685292243958 
C -0.8549444675445557 0.29781314730644226 0.08381470292806625 
N -1.0053805112838745 0.42218953371047974 -1.2413485050201416 
O 0.1027635708451271 0.7981331944465637 -1.8180279731750488 
C -2.0842018127441406 0.48806336522102356 0.9568659067153931 
H 1.7309054136276245 -1.4535123109817505 -1.6868804693222046 
H 2.7286555767059326 -0.3605903089046478 -0.6480486392974854 
H 1.6923280954360962 -1.6735167503356934 0.06698662787675858 
H 1.151594877243042 1.0111684799194336 0.563113272190094 
H 0.5309994220733643 -0.45243629813194275 1.546679973602295 
H 0.9537295699119568 0.023876184597611427 -1.2753039598464966 
H -2.9612960815429688 0.6036444902420044 0.30690544843673706 
H -1.9932506084442139 1.3920469284057617 1.5798251628875732 
H -2.214962959289551 -0.3742697238922119 1.6281663179397583 
