14

O 0.8031684756278992 1.3785889148712158 -0.2998810112476349 
C -0.4787382483482361 1.0943124294281006 0.5400266051292419 
C -0.28763073682785034 0.019461823627352715 1.4836113452911377 
C 1.1686142683029175 -0.49425819516181946 -0.7150477766990662 
C -0.24326440691947937 -0.9909685850143433 -0.8529871702194214 
C -1.0498360395431519 -0.24100813269615173 0.21385422348976135 
H 1.4654706716537476 1.4839755296707153 0.44771337509155273 
H -1.0141053199768066 2.0469062328338623 0.5995311141014099 
H -0.7526155114173889 0.03917595371603966 2.4839508533477783 
H 1.751871943473816 -0.9145752191543579 0.1093500554561615 
H 1.7208099365234375 -0.18347182869911194 -1.607161521911621 
H -0.6352329850196838 -0.816135823726654 -1.8683557510375977 
H -0.30323922634124756 -2.076345682144165 -0.6726891398429871 
H -2.145272970199585 -0.3456576466560364 0.13808436691761017 
