15

N -1.0721973180770874 0.35059067606925964 0.899599015712738 
C -0.13416843116283417 1.10578191280365 1.4895219802856445 
O -0.15203474462032318 2.1553497314453125 2.1388916969299316 
N 1.207637906074524 0.7084004282951355 0.9069214463233948 
C 1.3647356033325195 -0.4803394377231598 0.2778266370296478 
C -0.30621060729026794 -0.9658010601997375 -1.3004753589630127 
O -1.1498013734817505 -0.04679355397820473 -1.9640076160430908 
H -0.6001728177070618 -0.4794944226741791 -0.06909704208374023 
H -2.0016372203826904 0.6613768935203552 1.2119107246398926 
H 1.5227036476135254 1.5586615800857544 0.4243967533111572 
H 1.0036636590957642 -1.3732038736343384 0.7425189018249512 
H 2.193092107772827 -0.5209434628486633 -0.4371195137500763 
H -0.7436057925224304 -1.9707388877868652 -1.1341867446899414 
H 0.5799645781517029 -1.0728739500045776 -1.9340051412582397 
H -1.7119691371917725 0.37002745270729065 -1.2526957988739014 
