12

N -0.6536186933517456 1.9537967443466187 -2.1838200092315674 
C 0.2787969708442688 1.1957465410232544 -2.3176064491271973 
C 0.5259570479393005 0.6598443388938904 0.23292642831802368 
C 0.9089528918266296 -0.6873489022254944 0.7301004528999329 
C -0.6409134268760681 -0.9858028292655945 0.6687367558479309 
N -0.7882856726646423 0.40752989053726196 0.11286383122205734 
H 0.9851736426353455 1.624336838722229 0.14708752930164337 
H 1.320844292640686 -0.729364275932312 1.7492307424545288 
H 1.4910672903060913 -1.3125025033950806 0.015348168089985847 
H -1.1449778079986572 -1.0938351154327393 1.6347417831420898 
H -0.9720627665519714 -1.7365561723709106 -0.046404868364334106 
H -1.3109335899353027 0.704154908657074 -0.7432045936584473 
