11

N -0.46515750885009766 -0.13671594858169556 -1.7766839265823364 
C -0.36333099007606506 -0.7197892069816589 -0.5818929672241211 
N 0.855201780796051 1.618346929550171 -0.2279403805732727 
N 0.4912530481815338 1.1423817873001099 0.8531857132911682 
C 0.050208680331707 -0.19740502536296844 1.1483298540115356 
C 0.40888866782188416 -1.3485686779022217 0.31274494528770447 
H -0.1967436969280243 0.8655374050140381 -1.6957119703292847 
H -1.3346655368804932 -0.32758113741874695 -2.2891504764556885 
H 0.3470171093940735 1.747782588005066 1.6947675943374634 
H -0.574546217918396 -0.28614088892936707 2.0389034748077393 
H 0.7818746566772461 -2.3578479290008545 0.52344810962677 
