10

N 1.636736512184143 0.8016495108604431 -0.6431089043617249 
C 2.3859007358551025 -0.17912013828754425 -0.6100603342056274 
C 0.6707921624183655 -0.7056418657302856 0.6861874461174011 
C 0.6130979657173157 0.7628557682037354 0.4147346317768097 
O -0.7548458576202393 1.0990248918533325 -0.11120128631591797 
C -1.33195960521698 -0.08756802976131439 -0.23358619213104248 
C -0.5496599078178406 -1.1751354932785034 0.13855323195457458 
H 0.8141925930976868 1.5002217292785645 1.193121075630188 
H -2.3584699630737305 -0.05864864960312843 -0.600319504737854 
H -0.868046760559082 -2.2107279300689697 0.04740983247756958 
