15

O 2.641209840774536 0.06808046251535416 0.16250866651535034 
C 1.471092700958252 -0.5976985692977905 -0.3189620077610016 
C 0.20902949571609497 -0.08669362962245941 0.33223286271095276 
C -0.5379401445388794 1.1343967914581299 -0.20925571024417877 
C -1.833296537399292 0.36954307556152344 -0.27063286304473877 
C -1.3254222869873047 -0.9721230864524841 -0.029343770816922188 
O -1.735814094543457 -2.0724525451660156 0.37422510981559753 
H 2.5251331329345703 1.0189146995544434 -0.02366986870765686 
H 1.6123467683792114 -1.6577287912368774 -0.07335273176431656 
H 1.3759963512420654 -0.5156989693641663 -1.4206429719924927 
H 0.26195380091667175 -0.10174551606178284 1.4247956275939941 
H -0.6209173202514648 1.9346479177474976 0.5451726913452148 
H -0.17261238396167755 1.5882548093795776 -1.143869161605835 
H -0.8976460695266724 -0.9154863357543945 -1.1322845220565796 
H -2.855769157409668 0.759528636932373 -0.19058139622211456 
