13

C 1.0774409770965576 1.0075247287750244 0.8979917764663696 
C -0.3013945519924164 0.3461676239967346 1.002468228340149 
O -0.31312116980552673 -1.0674028396606445 0.9041211009025574 
C -0.08816034346818924 -1.3395311832427979 -1.083330750465393 
O 1.0470523834228516 -1.2274214029312134 -1.4602729082107544 
C -1.1991225481033325 0.369699627161026 -0.1475791186094284 
C -1.1761521100997925 -0.09619554877281189 -1.355440616607666 
H 1.6795198917388916 0.7387729287147522 1.779072642326355 
H 1.5984265804290771 0.6574382185935974 0.0034699919633567333 
H 0.9927443861961365 2.100579023361206 0.8522717952728271 
H -0.8209002017974854 0.6995229721069336 1.9101413488388062 
H -0.7246726751327515 -2.2251553535461426 -1.0541317462921143 
H -1.7716604471206665 0.03600112721323967 -2.248781681060791 
