13

C -0.8217776417732239 -1.7869147062301636 0.44216233491897583 
C -0.4557202160358429 -0.6018040776252747 -0.15442678332328796 
C 0.7628878951072693 -0.38180994987487793 -0.852096438407898 
N 1.1231276988983154 0.9364506006240845 -0.6585261225700378 
C 0.021213971078395844 1.613959550857544 -0.11928057670593262 
C -0.9594216346740723 0.7106577754020691 0.20428887009620667 
H 0.9516019821166992 0.30734801292419434 1.9499350786209106 
H -0.12245332449674606 -2.6250109672546387 0.5013788938522339 
H -1.878516674041748 -2.0327115058898926 0.5884250998497009 
H 1.521067500114441 -1.1414443254470825 -1.0482690334320068 
H 1.7911627292633057 1.386109471321106 -1.2874728441238403 
H 0.06528902798891068 2.6853909492492676 0.020650401711463928 
H -1.9984612464904785 0.9297794103622437 0.41323137283325195 
