10

N 1.7572777271270752 -0.5277493000030518 -1.658599615097046 
C 1.5280226469039917 -0.24795380234718323 -0.6013416647911072 
N -1.0930688381195068 -1.1863802671432495 -0.42587095499038696 
N -1.2832201719284058 -0.5290777087211609 -1.303513765335083 
O -1.4489610195159912 1.0144752264022827 2.2232367992401123 
C -0.4409293830394745 0.45987123250961304 1.686142921447754 
C 0.2322801798582077 1.1957532167434692 0.6540001034736633 
H 1.2853074073791504 -1.0833133459091187 -2.3803372383117676 
H -0.00811971165239811 -0.5207952260971069 2.015932321548462 
H -0.5285889506340027 1.4251699447631836 -0.20964878797531128 
