15

O 0.7794684767723083 -0.1453303098678589 -1.5911785364151 
C 0.2726616859436035 -0.2577303946018219 -0.30038440227508545 
C -1.2149558067321777 -0.6286923289299011 -0.27208685874938965 
C -1.0361287593841553 -2.0601541996002197 0.1199769526720047 
O -1.3746334314346313 -2.9378228187561035 0.833160936832428 
C 0.7943102121353149 0.6626628637313843 0.810439944267273 
C 0.3739511966705322 1.9047914743423462 0.15964968502521515 
H 1.7553248405456543 -0.09212584793567657 -1.4879802465438843 
H -1.7880871295928955 -0.07629764080047607 0.4895038306713104 
H -1.6992357969284058 -0.5464034676551819 -1.2550323009490967 
H 0.577609658241272 -1.4918392896652222 0.1071954220533371 
H 1.879388451576233 0.5394172072410583 0.9378061890602112 
H 0.273479163646698 0.4484550654888153 1.7490214109420776 
H -0.6044356822967529 2.3280422687530518 0.3049003779888153 
H 1.0112828016281128 2.3530280590057373 -0.6049918532371521 
