15

C -2.493877410888672 0.028364917263388634 -0.12707531452178955 
C -1.0778987407684326 -0.10429883003234863 0.4384704530239105 
O -0.21689757704734802 0.8369550108909607 -0.16319876909255981 
C 1.424190640449524 -0.20848436653614044 -0.9700373411178589 
O 1.2486227750778198 -0.88092041015625 -1.8986462354660034 
C 1.573877215385437 0.5058709383010864 0.22753839194774628 
O 3.3160698413848877 0.024129943922162056 -0.12929390370845795 
H -2.8757247924804688 1.045964002609253 0.029206188395619392 
H -2.497793674468994 -0.18014365434646606 -1.205411672592163 
H -3.1751832962036133 -0.6803160905838013 0.36786431074142456 
H -0.7374631762504578 -1.1529029607772827 0.2749691605567932 
H -1.1097118854522705 0.0397656112909317 1.5403242111206055 
H 1.7833678722381592 1.567288875579834 0.16946746408939362 
H 1.4124579429626465 0.032664306461811066 1.1945114135742188 
H 3.423638343811035 -0.8738971948623657 0.25219565629959106 
