11

N 0.8390752077102661 1.6496045589447021 -0.6978712677955627 
C 0.32801827788352966 0.4366666376590729 -0.22769908607006073 
C -0.9654405117034912 0.23867057263851166 0.2566693127155304 
N -1.1586624383926392 -1.1036550998687744 0.414006769657135 
N 0.04426418989896774 -1.7784284353256226 0.18789221346378326 
C 1.0096794366836548 -0.8439416289329529 -0.18582464754581451 
H 0.6154300570487976 1.8683538436889648 -1.6592891216278076 
H 1.8250678777694702 1.758195161819458 -0.5163438320159912 
H -1.7378243207931519 0.9635205268859863 0.46569880843162537 
H -1.8241229057312012 -1.5000431537628174 1.082168459892273 
H 1.0245150327682495 -1.688942790031433 0.8805922865867615 
