13

C -1.0817348957061768 1.0352219343185425 -1.0125772953033447 
N -0.32565489411354065 0.618492841720581 0.1810653805732727 
C 1.069183588027954 0.13694113492965698 0.0037797046825289726 
C 0.866752564907074 -0.7581846117973328 1.3157541751861572 
C -0.5074828267097473 -0.6742006540298462 0.7442587018013 
O -0.7444115877151489 -1.609663724899292 -0.1263127475976944 
H -1.3531150817871094 0.20451268553733826 -1.663582682609558 
H -0.46892493963241577 1.758939504623413 -1.5745958089828491 
H -1.9902892112731934 1.5443952083587646 -0.6728565692901611 
H 1.7985142469406128 0.9610058069229126 -0.013866526074707508 
H 0.2793349027633667 -1.3204615116119385 -0.7082858085632324 
H 1.3888823986053467 -1.7193806171417236 1.306450366973877 
H 1.0689457654953003 -0.17761793732643127 2.220768928527832 
