15

C 2.0762641429901123 0.2977057695388794 0.6358060836791992 
C 0.7349345088005066 0.08480743318796158 1.3140664100646973 
C 0.9750131964683533 -0.6105706095695496 -0.007820168510079384 
N 0.7438678741455078 0.04763253778219223 -1.130908727645874 
C -2.1583333015441895 0.23601822555065155 -0.3206135928630829 
C -1.6350750923156738 -0.05181568115949631 -1.5276217460632324 
H 2.9323031902313232 -0.21458035707473755 1.0924404859542847 
H 2.302623987197876 1.28775155544281 0.2364046573638916 
H 0.7452525496482849 -0.5342684984207153 2.2088465690612793 
H -0.06310064345598221 0.8166967034339905 1.285361886024475 
H 1.1835867166519165 -1.7106927633285522 0.025228995829820633 
H -2.383960008621216 1.2495393753051758 -0.01810118928551674 
H -2.3937625885009766 -0.5412914752960205 0.4076971709728241 
H -1.5450549125671387 -1.0668549537658691 -1.9025189876556396 
H -1.5145586729049683 0.7099229097366333 -2.2982680797576904 
