12

C 1.6124324798583984 -0.004026543349027634 -0.12259463220834732 
O 1.2821143865585327 -0.2771018445491791 1.2521828413009644 
C 0.2202264964580536 -0.06431268155574799 0.32480135560035706 
C -0.8622474074363708 1.0058749914169312 0.4795473515987396 
O -1.8605566024780273 -0.05913291126489639 0.27624744176864624 
C -0.9211508631706238 -1.0445442199707031 0.12631070613861084 
H 2.0208232402801514 -0.8447920083999634 -0.6911818981170654 
H 2.067188024520874 0.9731994867324829 -0.31762364506721497 
H -0.9320895075798035 1.7500407695770264 -0.3249104917049408 
H -0.9655469655990601 1.4610376358032227 1.4707248210906982 
H -0.9903475046157837 -1.7677979469299316 -0.8535672426223755 
H -0.7124466896057129 -1.3304258584976196 -1.744938611984253 
