9

O 0.5824478268623352 1.9429843425750732 0.195371612906456 
C 0.3046016991138458 0.6116834878921509 0.08289383351802826 
C 0.8439351916313171 -0.6294836401939392 0.4759856164455414 
O -0.23114189505577087 -1.415770411491394 0.11984444409608841 
C -1.00157630443573 -0.18839506804943085 -0.19404055178165436 
H 1.7610760927200317 -1.0750393867492676 0.852563738822937 
H 0.902414858341217 1.0606123208999634 -0.8348365426063538 
H -1.3957524299621582 -0.2275937795639038 -1.2164397239685059 
H -1.7987760305404663 -0.04317185655236244 0.5421085357666016 
