18

C 1.7869062423706055 -0.27547651529312134 0.7541860938072205 
C 0.591566801071167 0.47992244362831116 0.4174599349498749 
C 0.767940878868103 1.614627718925476 -0.5961190462112427 
C -0.47107529640197754 -0.6677258610725403 -0.023998377844691277 
C -1.7464368343353271 -0.6129736304283142 0.8253578543663025 
C -0.6788380742073059 -0.616298258304596 -1.5777872800827026 
N -1.8224927186965942 -0.5735042095184326 -2.0347647666931152 
H 0.29061782360076904 -0.6915094256401062 -2.122642993927002 
H 1.8304492235183716 -0.8553727865219116 1.675262212753296 
H 2.5767555236816406 -0.43345171213150024 0.018675360828638077 
H 0.13633573055267334 0.88658607006073 1.334380030632019 
H 1.3226531744003296 2.4402518272399902 -0.13191980123519897 
H -0.20367297530174255 1.9931632280349731 -0.9387502074241638 
H 1.331416130065918 1.2834726572036743 -1.4792200326919556 
H 0.008134019561111927 -1.6570625305175781 0.10134229809045792 
H -2.4357454776763916 -1.4222830533981323 0.5615467429161072 
H -1.4802201986312866 -0.713908314704895 1.8866957426071167 
H -2.267047882080078 0.34193646907806396 0.6800082325935364 
