11

O 2.3764936923980713 -1.0891406536102295 0.004883752670139074 
C 1.6792728900909424 -0.10148903727531433 0.021920420229434967 
O -0.8183668851852417 -2.318688154220581 -0.1819402575492859 
C -1.5495786666870117 -1.3415825366973877 -0.0601278655230999 
C -1.1097426414489746 0.05261290818452835 0.012058123014867306 
C 0.23114243149757385 0.39116957783699036 -0.00480837794020772 
C 1.4557178020477295 1.2339136600494385 0.3421441912651062 
H -2.6575963497161865 -1.4548062086105347 0.03442128002643585 
H -1.8694504499435425 0.8370089530944824 0.03231540322303772 
H 0.33216559886932373 1.345192551612854 -0.6677523255348206 
H 1.694718599319458 2.2928669452667236 0.42854365706443787 
