9

O 0.8768715262413025 1.6748055219650269 0.6745398640632629 
C 0.2892662286758423 0.5314842462539673 0.3422635495662689 
C -0.5477966666221619 -0.5177304744720459 0.8569360375404358 
O -0.5708966851234436 -1.2907764911651611 -0.2966308295726776 
C 0.31527596712112427 -0.30927371978759766 -0.9560003876686096 
H -0.9877507090568542 -0.8010897040367126 1.7974580526351929 
H -0.5418078899383545 1.36078679561615 0.609446108341217 
H -0.13254103064537048 0.10913050919771194 -1.8536624908447266 
H 1.2993792295455933 -0.7573366761207581 -1.1743497848510742 
