15

C -1.3534936904907227 1.1533572673797607 0.7133762240409851 
C -0.07632799446582794 0.29406654834747314 0.7567643523216248 
C 0.9886213541030884 0.554685652256012 -0.3264395594596863 
N 1.1695164442062378 -0.8883669376373291 -0.7349188923835754 
C -0.3776242733001709 -1.139169454574585 0.3562716841697693 
C 0.09547429531812668 -1.3607816696166992 -1.4792816638946533 
N -0.5027281641960144 -2.0477774143218994 -2.244183301925659 
H -1.105933427810669 2.213862419128418 0.880560040473938 
H -1.8444850444793701 1.0738064050674438 -0.2629489004611969 
H -2.069272518157959 0.8232417106628418 1.4758399724960327 
H 0.3904162049293518 0.3651779294013977 1.751607060432434 
H 0.6341732740402222 1.149652361869812 -1.1720283031463623 
H 1.9275200366973877 0.9720128774642944 0.05542726069688797 
H 2.1269283294677734 -1.2402011156082153 -0.8005068898200989 
H -0.0027846156153827906 -1.9235663414001465 1.030461072921753 
