21

C 1.7219876050949097 0.11939262598752975 -0.7946853041648865 
C 0.5962674021720886 -0.9161199331283569 -0.6652746200561523 
C 0.2855900526046753 -1.5632411241531372 -2.0302858352661133 
C -0.686188280582428 -0.2983286380767822 -0.055353693664073944 
C -0.6134951114654541 0.22925002872943878 1.3285982608795166 
C -1.744541049003601 0.834789514541626 1.9599621295928955 
O 0.10442167520523071 2.07405161857605 0.9443508982658386 
H 1.4145957231521606 0.9770377278327942 -1.4069595336914062 
H 2.621331214904785 -0.33333301544189453 -1.2375211715698242 
H 2.0250625610351562 0.5091797709465027 0.19102363288402557 
H 0.9100860357284546 -1.7169405221939087 0.017899909988045692 
H 1.179050326347351 -2.0716137886047363 -2.431518316268921 
H -0.5074078440666199 -2.3134799003601074 -1.955262541770935 
H -0.02063516341149807 -0.8030502796173096 -2.7613365650177 
H -1.4683210849761963 -1.082391381263733 -0.023462694138288498 
H -1.0677257776260376 0.4725536108016968 -0.7526734471321106 
H 0.25244665145874023 -0.07164635509252548 1.9216126203536987 
H -1.7533481121063232 0.9474589824676514 3.0488860607147217 
H -2.7272086143493652 0.6899179816246033 1.5003769397735596 
H -1.109066128730774 1.9366676807403564 1.4399044513702393 
H 0.5870968699455261 2.3798468112945557 1.7617202997207642 
