15

O 0.3905034363269806 -1.5151968002319336 -1.449474573135376 
C 0.8424079418182373 -0.3213648200035095 -0.9237132668495178 
C 1.0339868068695068 -0.42212584614753723 0.6155378818511963 
C -0.40618273615837097 -0.07901957631111145 1.0390903949737549 
C -0.6909716725349426 1.2480595111846924 0.2714173197746277 
C -0.40807628631591797 0.540377140045166 -1.0250556468963623 
O -1.324234127998352 -0.9051284790039062 0.26951152086257935 
H -0.7531337141990662 -1.5574159622192383 -0.3190096318721771 
H 1.6961593627929688 0.11616259068250656 -1.4789562225341797 
H 1.7506235837936401 0.3173881769180298 1.0010966062545776 
H 1.313523292541504 -1.4437875747680664 0.912656843662262 
H -0.6564955115318298 -0.14314599335193634 2.1025712490081787 
H -1.7322845458984375 1.5648118257522583 0.40518221259117126 
H -0.0015311370370909572 2.080876350402832 0.47678467631340027 
H -1.0542947053909302 0.5195096731185913 -1.8976391553878784 
