15

O 2.212857723236084 -0.04749085009098053 -0.37479880452156067 
C 1.0804166793823242 0.35414859652519226 0.39208072423934937 
C 0.2584057152271271 1.3765435218811035 -0.4127126932144165 
C -1.1319200992584229 0.3411373794078827 0.9029598832130432 
O -2.396482467651367 -0.0700993463397026 0.981899082660675 
C -0.5504659414291382 -0.6584754586219788 -0.9140839576721191 
C -0.08098019659519196 -0.6817352175712585 0.4876611530780792 
H 2.634699583053589 -0.7844553589820862 0.10469883680343628 
H 1.3739789724349976 0.7274038195610046 1.3848751783370972 
H -0.0019334977259859443 2.336583375930786 0.020405223593115807 
H 0.5372106432914734 1.4472633600234985 -1.4673799276351929 
H -2.5248000621795654 -1.015929937362671 0.6898336410522461 
H -1.5444748401641846 -1.0289665460586548 -1.1841447353363037 
H 0.1696505844593048 -0.6519656777381897 -1.727561354637146 
H -0.014122125692665577 -1.6228797435760498 1.0648345947265625 
