17

C -1.2269721031188965 -0.9811139702796936 0.6112644076347351 
C -0.17137956619262695 -0.6676016449928284 -0.4267200827598572 
C 0.11555550247430801 0.7285757660865784 -0.9184707403182983 
C -0.5492792129516602 1.897961139678955 -0.19325201213359833 
C 1.5475627183914185 0.37283986806869507 -0.5457294583320618 
C 1.4449721574783325 -0.6548429727554321 0.4359431564807892 
C 1.7849630117416382 -1.380259394645691 1.4493227005004883 
H -2.21779203414917 -0.94561767578125 0.1265999972820282 
H -1.0727871656417847 -1.9877545833587646 1.0204228162765503 
H -1.2183446884155273 -0.2642505466938019 1.438095211982727 
H -0.08300890028476715 -1.427334189414978 -1.2066287994384766 
H -0.018899424001574516 0.8169320821762085 -2.0053141117095947 
H -0.14955300092697144 2.850900411605835 -0.5638871192932129 
H -1.6367846727371216 1.8924580812454224 -0.35988470911979675 
H -0.3611357808113098 1.8485742807388306 0.8861239552497864 
H 2.298779249191284 0.27383705973625183 -1.339069128036499 
H 1.4561139345169067 -2.399106740951538 1.6550710201263428 
