17

C 0.3391004800796509 1.652961015701294 -0.20261937379837036 
C -0.23307961225509644 0.32709917426109314 -0.3774021565914154 
O -0.7540585398674011 0.05455378443002701 -1.5502592325210571 
C -0.9472320079803467 -0.334232896566391 0.8573451638221741 
C -0.39625686407089233 -1.7479089498519897 0.845299482345581 
C 0.8051071763038635 -1.7922073602676392 0.23004233837127686 
C 1.3039308786392212 -0.43385833501815796 -0.2021731585264206 
H 0.6657958626747131 2.1891582012176514 -1.097182035446167 
H 0.6064726710319519 2.0431861877441406 0.7856792211532593 
H -1.3707507848739624 2.249566078186035 -1.040679693222046 
H -1.4941604137420654 1.5624430179595947 -1.4587907791137695 
H -0.7154727578163147 0.20486482977867126 1.793282151222229 
H -2.034515380859375 -0.3068302571773529 0.6838003993034363 
H -0.9054297804832458 -2.5766923427581787 1.331730604171753 
H 1.380355715751648 -2.702932596206665 0.030917996540665627 
H 1.8032079935073853 -0.4449752867221832 -1.176087737083435 
H 1.9469853639602661 0.055806949734687805 0.5470970273017883 
