16

C -1.4482544660568237 -0.5781698226928711 0.7420709729194641 
C 0.05600328370928764 -0.7741435766220093 0.8676866888999939 
C 1.2876198291778564 -0.3728727698326111 -0.5708665251731873 
C 0.5368686318397522 0.10262518376111984 -1.786193609237671 
C 1.0082569122314453 0.4316965639591217 0.6887739896774292 
C 0.33699947595596313 1.7184467315673828 0.6364089846611023 
N -0.18185867369174957 2.7668561935424805 0.5558569431304932 
H -1.9649107456207275 -1.5514153242111206 0.7948600053787231 
H -1.8198169469833374 0.0496504008769989 1.5606577396392822 
H -1.7239795923233032 -0.08785829693078995 -0.20211000740528107 
H 0.37037569284439087 -1.3939763307571411 1.7143423557281494 
H 0.5039828419685364 -1.4746568202972412 -0.011724264360964298 
H 0.23523062467575073 -0.7221412658691406 -2.4460439682006836 
H 1.3140761852264404 0.6701156497001648 -2.3236873149871826 
H -0.33469897508621216 0.7606131434440613 -1.6457107067108154 
H 1.8241058588027954 0.455230176448822 1.4256789684295654 
