13

C 1.985601544380188 0.40816572308540344 0.11006030440330505 
C 0.5423486828804016 0.046295735985040665 -0.022373199462890625 
C -0.03140401467680931 -1.2379112243652344 -0.15187640488147736 
N -1.4965423345565796 -1.052585244178772 -0.3058891296386719 
C -1.583209753036499 0.29025164246559143 -0.15637575089931488 
O -2.809523105621338 0.8602074384689331 -0.12330984324216843 
N -0.44188618659973145 0.9837988018989563 -0.01813807524740696 
H 2.153214693069458 0.995072603225708 1.0239616632461548 
H 2.300945997238159 1.028683066368103 -0.7409046292304993 
H 2.6142492294311523 -0.48972439765930176 0.14281101524829865 
H 0.4068542420864105 -2.1728906631469727 -0.48828503489494324 
H -0.9250155687332153 -1.5082004070281982 0.7372394800186157 
H -2.6642303466796875 1.8183939456939697 -0.0003263769031036645 
