17

C 0.5023481249809265 2.1746013164520264 -1.109218955039978 
C 0.40562233328819275 0.8760839104652405 -0.29319819808006287 
C 1.2257884740829468 0.7107731103897095 0.8915594220161438 
O -0.5289561152458191 -0.6321322917938232 1.5921357870101929 
C -1.0028866529464722 -1.0547301769256592 0.48049396276474 
C -0.7865880727767944 -2.4978349208831787 0.06887810677289963 
O 0.019161827862262726 -0.2229265719652176 -0.9062928557395935 
H -0.3706929087638855 2.250582218170166 -1.7603790760040283 
H 1.4102321863174438 2.112860679626465 -1.7284818887710571 
H 0.5643029808998108 3.055345058441162 -0.45981565117836 
H -0.444944828748703 1.0973502397537231 0.5582531094551086 
H 1.3205522298812866 1.5123116970062256 1.6286972761154175 
H 1.776847004890442 -0.21827886998653412 1.0240099430084229 
H -1.9274333715438843 -0.5963386297225952 0.07763277739286423 
H -1.3980387449264526 -3.1590423583984375 0.7058238387107849 
H -1.030085802078247 -2.64224910736084 -0.9893275499343872 
H 0.2647717297077179 -2.7663755416870117 0.2192300260066986 
