12

N 2.9103736877441406 0.06209927797317505 0.09556074440479279 
C 1.840474247932434 0.3937353193759918 -0.2654077708721161 
C 0.4945819675922394 0.5498021245002747 -0.7401484251022339 
C -0.8417043685913086 -1.1080323457717896 -0.12968768179416656 
N -1.91151762008667 -0.6786390542984009 0.790259599685669 
C -0.8269988298416138 0.028659101575613022 0.9634459018707275 
N -0.4416881203651428 1.229655385017395 -0.0015967937652021646 
H 0.35608816146850586 0.4778389036655426 -1.8213965892791748 
H -1.2193900346755981 -1.0894498825073242 -1.1593867540359497 
H -0.11321379244327545 -1.9027807712554932 0.021057313308119774 
H -0.10075882077217102 -0.035069916397333145 1.7795377969741821 
H -0.14624625444412231 2.0721817016601562 0.46776261925697327 
