13

C -0.8611024022102356 -1.0959724187850952 0.08517199009656906 
C -0.6683629155158997 0.9657591581344604 -1.0067148208618164 
O 0.00945116113871336 1.5183680057525635 -0.012874823994934559 
C 1.2093408107757568 0.784101665019989 0.2667916417121887 
C 0.945600688457489 -0.7205476760864258 0.02758200280368328 
N 1.745270848274231 -1.6014890670776367 -0.19162823259830475 
H -1.6000970602035522 -0.4783150851726532 0.6083903312683105 
H -1.2767729759216309 -1.5186878442764282 -0.8359599113464355 
H -0.6337637901306152 -1.92799711227417 0.7586297988891602 
H -1.7036105394363403 1.2911827564239502 -1.085931658744812 
H -0.13817918300628662 0.5988356471061707 -1.8893756866455078 
H 1.4950573444366455 1.0305060148239136 1.2954702377319336 
H 1.997182011604309 1.0890709161758423 -0.43145692348480225 
