11

C 0.9950058460235596 -1.9282246828079224 0.12524469196796417 
C 0.008156251162290573 -1.084800124168396 0.1064581423997879 
C 0.5083470940589905 0.11435823887586594 -0.6299945712089539 
N 0.5643256306648254 1.3647819757461548 0.05175136402249336 
C -0.8770205974578857 1.346729040145874 -0.24947279691696167 
C -1.5811700820922852 0.3812655210494995 0.5062388777732849 
N -1.3426529169082642 -0.8450217247009277 0.7455529570579529 
H 1.3255202770233154 -2.7014217376708984 0.821925938129425 
H 1.018600344657898 0.028274232521653175 -1.5904632806777954 
H 0.6659889817237854 1.2629420757293701 1.0644521713256836 
H -1.2851008176803589 2.06111741065979 -0.9516934156417847 
