10

O 0.613782525062561 1.9162136316299438 -0.2520444691181183 
C -0.37734588980674744 1.0795663595199585 -0.2875012159347534 
C -0.20050814747810364 -0.2821228504180908 -0.7434755563735962 
O -0.2816760540008545 -0.7434922456741333 -1.87382972240448 
C 0.07607024908065796 -1.1973085403442383 0.5810188055038452 
O -0.29285702109336853 -2.4072072505950928 0.68038010597229 
H 1.4320333003997803 1.4386234283447266 0.038957010954618454 
H -0.6696276068687439 -0.45604875683784485 1.1908912658691406 
H -1.384230375289917 1.531427264213562 -0.3194747269153595 
H 1.084359049797058 -0.8796511888504028 0.9850784540176392 
