13

N 1.1688556671142578 1.4617879390716553 1.1162915229797363 
C 0.30502164363861084 0.5585469603538513 0.49166664481163025 
C -0.453218549489975 0.563165009021759 -0.6733142733573914 
O -1.270444631576538 1.3887872695922852 -1.2867693901062012 
C -0.6641693711280823 -0.8165203928947449 -1.134000539779663 
C -0.25275570154190063 -1.6331957578659058 -0.020784368738532066 
N 0.2885935306549072 -0.80280601978302 0.9159284830093384 
H 0.6854920983314514 2.2104289531707764 1.6021710634231567 
H 1.962609052658081 1.7527645826339722 0.5666026473045349 
H -1.6915175914764404 0.04835515096783638 -1.5400625467300415 
H -0.21325388550758362 -1.0378297567367554 -2.1186492443084717 
H -0.5477362871170044 -2.6367743015289307 0.269969642162323 
H 0.6825238466262817 -1.056709885597229 1.8109503984451294 
