13

N 1.6748456954956055 0.7820994853973389 -1.077481746673584 
C 0.7219879627227783 -0.05807439982891083 -0.8350662589073181 
O 0.5958260893821716 -1.338268518447876 -1.3846405744552612 
C -0.722236692905426 -1.523396372795105 -0.6696460247039795 
C -0.4799715280532837 -0.18646717071533203 -0.022675273939967155 
C -0.056068792939186096 1.191046118736267 1.5349147319793701 
N -1.1194263696670532 0.7105525135993958 0.8165977597236633 
H 2.620417356491089 0.38263827562332153 -0.9960892200469971 
H -1.5277348756790161 -1.588659644126892 -1.4248369932174683 
H -0.6743847727775574 -2.4293570518493652 -0.048946313560009 
H 0.43440917134284973 0.5074422359466553 2.2112252712249756 
H 0.3457638919353485 2.1974599361419678 1.4557346105575562 
H -1.8134278059005737 1.3529841899871826 0.4409104883670807 
