12

C -1.390315055847168 0.4224700927734375 0.7971309423446655 
C -0.3389824628829956 0.673965334892273 -0.28002405166625977 
N -0.400787353515625 1.5360944271087646 -1.2397806644439697 
N 0.7570633292198181 -0.11086580157279968 -0.12732096016407013 
C 1.7621394395828247 -0.8258174657821655 0.008654079400002956 
O 1.9996912479400635 -2.0209879875183105 -0.6154178977012634 
H -2.3306329250335693 0.9240942001342773 0.5383780002593994 
H -1.0380042791366577 0.807456910610199 1.7647314071655273 
H -1.5822895765304565 -0.6526479721069336 0.9174017310142517 
H -1.2957123517990112 2.033572196960449 -1.168615460395813 
H 1.2424805164337158 -2.183340072631836 -1.2188886404037476 
H 2.6160755157470703 -0.6022865772247314 0.6628045439720154 
