11

C 1.5725815296173096 -0.5611600875854492 -0.5456412434577942 
C -0.4590457081794739 -0.3000216484069824 -0.8638137578964233 
C -1.2175354957580566 0.764081597328186 -0.35812920331954956 
N -1.2319002151489258 0.611411988735199 1.0029664039611816 
N -0.4855883717536926 -0.4076642096042633 1.4370912313461304 
N -0.05162767320871353 -0.9749455451965332 0.30984923243522644 
H 2.0841779708862305 -0.6308073401451111 0.41419413685798645 
H 1.7138971090316772 -1.4437888860702515 -1.170698642730713 
H 1.7570338249206543 0.38173219561576843 -1.0568598508834839 
H -1.9186222553253174 1.4255752563476562 -0.8739603161811829 
H -1.7633707523345947 1.1355867385864258 1.7050020694732666 
