13

C 1.9787155389785767 0.45161134004592896 0.24583345651626587 
C 1.6658271551132202 0.4064253568649292 -0.9860004186630249 
C 0.24919235706329346 0.060950443148612976 -0.40274903178215027 
C -0.8834252953529358 1.0641332864761353 -0.2919224798679352 
C -0.6688385009765625 0.18064750730991364 0.8880928158760071 
O -1.219245433807373 -1.117823839187622 0.6851112842559814 
C -0.3343033492565155 -1.3496482372283936 -0.4541736841201782 
H 2.3244194984436035 0.4828977882862091 1.266587495803833 
H -1.778833270072937 0.9341073036193848 -0.9069642424583435 
H -0.5305344462394714 2.090590476989746 -0.18926647305488586 
H -0.49651065468788147 0.500913679599762 1.9156254529953003 
H 0.41092872619628906 -2.1175363063812256 -0.2069541960954666 
H -0.8788462281227112 -1.6133438348770142 -1.3731108903884888 
