13

C 0.5194734334945679 -1.3334033489227295 -0.10372734814882278 
C 1.0985229015350342 0.8908496499061584 0.28119632601737976 
O 0.022712968289852142 1.0772032737731934 1.0684601068496704 
C -1.1643809080123901 0.8685712218284607 0.2888142168521881 
C -0.8951821327209473 -0.327301561832428 -0.6542922258377075 
N -1.5272576808929443 -0.7606567740440369 -1.5780248641967773 
H -0.12769919633865356 -2.2101197242736816 -0.03927993401885033 
H 1.0980243682861328 -1.3415627479553223 0.832622766494751 
H 1.2176762819290161 -1.479396104812622 -0.925079345703125 
H 1.119550347328186 1.4047839641571045 -0.6984751224517822 
H 2.0188348293304443 0.7629525661468506 0.8675466775894165 
H -1.9966020584106445 0.6877020597457886 0.9787293076515198 
H -1.3836735486984253 1.7603777647018433 -0.31849056482315063 
