15

C 2.148439884185791 -0.6202660799026489 0.8513817191123962 
N 0.8219618201255798 -0.13563871383666992 0.5119055509567261 
C 0.38695693016052246 0.18587355315685272 -0.7218564748764038 
C -1.040480375289917 0.04890118166804314 -0.7034768462181091 
C -1.9330036640167236 0.7684279084205627 -1.459153413772583 
C -1.2683173418045044 -0.6323869824409485 0.5512391924858093 
N -0.2216121405363083 -0.4477108418941498 1.3505908250808716 
H 2.2056467533111572 -0.7777447700500488 1.9335848093032837 
H 2.4197065830230713 -1.5328933000564575 0.3115065097808838 
H 2.849623918533325 0.18317167460918427 0.5673065781593323 
H 1.02399742603302 0.23356306552886963 -1.6027997732162476 
H -0.49213120341300964 2.208022117614746 1.1606656312942505 
H -2.882539749145508 1.088269591331482 -1.037434697151184 
H -1.9266571998596191 0.7031494379043579 -2.556478500366211 
H -2.0915911197662354 -1.272737741470337 0.8430188298225403 
