16

N -2.311741828918457 -1.4451813697814941 0.016575543209910393 
C -1.5302497148513794 -0.5975977182388306 -0.40236327052116394 
C -0.5672206878662109 -0.007784493267536163 -1.2345490455627441 
C 0.8738011717796326 -0.45293569564819336 -0.8907811641693115 
C 1.4073818922042847 0.34174227714538574 0.32599979639053345 
C 0.3397374749183655 0.6301351189613342 1.4191257953643799 
O -0.7842220067977905 1.2311149835586548 0.8518149852752686 
H -3.2369842529296875 -1.133553147315979 0.34235909581184387 
H -0.8282545804977417 0.12362343072891235 -2.295424222946167 
H -0.676411509513855 1.0432199239730835 -0.540219783782959 
H 1.5271666049957275 -0.3173663914203644 -1.7602009773254395 
H 0.8659213781356812 -1.5403083562850952 -0.6819860935211182 
H 1.7600723505020142 1.3220263719558716 -0.03067195415496826 
H 2.2856082916259766 -0.16853132843971252 0.7557432651519775 
H 0.07827839255332947 -0.3202283978462219 1.935763955116272 
H 0.7971162796020508 1.2916245460510254 2.1888132095336914 
