11

C -0.889872133731842 0.6596701741218567 -0.9274869561195374 
C -0.05190804973244667 -0.029317248612642288 0.1256035566329956 
C 1.0920478105545044 0.6443069577217102 0.7560274600982666 
O 2.0594756603240967 0.03863899037241936 1.2319074869155884 
C -0.18029965460300446 -1.4233922958374023 0.3722083270549774 
N -0.5175901651382446 -2.6024017333984375 0.4019980728626251 
H -0.3284273147583008 1.4572862386703491 -1.4205677509307861 
H -1.2180265188217163 -0.06342846900224686 -1.6825536489486694 
H -1.7870322465896606 1.1065348386764526 -0.4752452075481415 
H 0.8254283666610718 -1.5376452207565308 0.8252447843551636 
H 0.9962042570114136 1.7497477531433105 0.7928638458251953 
