11

N 2.3168230056762695 0.6017206907272339 -0.6206479668617249 
C 1.3007616996765137 0.08077389746904373 -0.1458306610584259 
C -0.6319937705993652 0.6497832536697388 -0.6927692890167236 
O -1.1818594932556152 -0.5794622302055359 -0.24819931387901306 
C -0.5004879236221313 -0.9123777747154236 0.9175705909729004 
O 0.9232123494148254 -0.9873395562171936 0.5878532528877258 
H 1.0299978256225586 0.9832896590232849 -0.9901210069656372 
H -0.9267784953117371 0.7873414754867554 -1.7349188327789307 
H -0.934084415435791 1.4912396669387817 -0.050927650183439255 
H -0.6352229714393616 -0.1917862743139267 1.7415211200714111 
H -0.7603681087493896 -1.9231828451156616 1.2364696264266968 
