12

C -1.0657415390014648 -0.3262825906276703 -0.6517919898033142 
C 0.39294931292533875 -0.36648255586624146 -0.3656541109085083 
C 0.5734687447547913 1.2271606922149658 -0.38264214992523193 
O 1.2597817182540894 1.7981128692626953 -1.2064920663833618 
C 0.7295579314231873 -0.7790229916572571 0.9790232181549072 
O -0.28405773639678955 -0.9255484938621521 1.7952594757080078 
H -1.3534231185913086 -0.45197930932044983 -1.6940739154815674 
H -1.0794522762298584 -1.0217807292938232 1.11553955078125 
H -1.6814181804656982 0.40368208289146423 -0.11974649131298065 
H 1.0537817478179932 -0.7518989443778992 -1.1459060907363892 
H -0.010602915659546852 1.7123398780822754 0.4183582365512848 
H 1.7269383668899536 -0.8601610064506531 1.4047024250030518 
