17

C -1.872445821762085 -0.313955694437027 0.5907595753669739 
C -1.287068247795105 0.8241963982582092 -0.2206343114376068 
C 0.009255222976207733 1.4699815511703491 0.2126537263393402 
C -0.03161534667015076 0.6453599333763123 -1.0421414375305176 
C 1.7230372428894043 -1.0780425071716309 -0.8196681141853333 
C 1.8127965927124023 -1.4446759223937988 0.506144642829895 
O 1.21917724609375 -1.5578904151916504 1.5717731714248657 
H -2.4870712757110596 0.08126632869243622 1.4125210046768188 
H -1.0742876529693604 -0.9261208772659302 1.0320323705673218 
H -2.5079360008239746 -0.9578543901443481 -0.0345243476331234 
H -2.024540662765503 1.4771738052368164 -0.6954596042633057 
H 0.13541588187217712 2.5468711853027344 0.10092896223068237 
H 0.49349281191825867 1.03836989402771 1.0869191884994507 
H 0.07966383546590805 1.1158851385116577 -2.018606662750244 
H 2.465860366821289 -0.40429234504699707 -1.2535377740859985 
H 0.36851081252098083 -0.43532657623291016 -1.0769643783569336 
H 2.8201746940612793 -2.000333547592163 0.30063289403915405 
