13

C 1.051328182220459 -1.0857032537460327 -0.4123612940311432 
C 0.20499080419540405 0.4347955286502838 0.45733535289764404 
O 1.068985104560852 0.9555259346961975 1.300753116607666 
C -0.751045823097229 1.0771652460098267 -0.5110579133033752 
C -1.2665942907333374 0.14560815691947937 0.5920230746269226 
H 0.21316391229629517 -1.3791800737380981 -1.041080355644226 
H 1.907912015914917 -0.8129572868347168 -1.0461894273757935 
H 1.303605556488037 -1.8947211503982544 0.28873908519744873 
H 1.4266078472137451 -0.10506659746170044 0.5323636531829834 
H -0.9022154808044434 2.1512110233306885 -0.3705320358276367 
H -0.8282530307769775 0.7356938123703003 -1.546431541442871 
H -1.7497018575668335 0.5995510220527649 1.4624019861221313 
H -1.6787827014923096 -0.8219228386878967 0.294036328792572 
