14

C 1.90413236618042 -0.9122202396392822 -0.678112268447876 
C 0.294320672750473 0.5304653644561768 -1.560867190361023 
O -0.7711971402168274 0.26940372586250305 -0.7440134882926941 
C -0.806679904460907 0.716533899307251 0.5681527853012085 
O -0.0004208336758892983 1.5304468870162964 0.986534833908081 
C -1.9917545318603516 0.13596832752227783 1.3121798038482666 
H 1.3951194286346436 -1.8437261581420898 -0.3959188759326935 
H 2.791424036026001 -1.0604276657104492 -1.2932164669036865 
H 2.0795514583587646 -0.26230525970458984 0.1857881098985672 
H 0.8992724418640137 1.372984766960144 -1.196883201599121 
H 1.0721204280853271 -0.46522822976112366 -1.6281324625015259 
H -2.0437049865722656 -0.9515724182128906 1.1490713357925415 
H -1.9039052724838257 0.3533703684806824 2.3784313201904297 
H -2.918278455734253 0.5863067507743835 0.9169853925704956 
