9

O 0.10525943338871002 2.0178401470184326 0.476461797952652 
C 0.05527816712856293 0.8237266540527344 0.3304731845855713 
C 1.0868961811065674 -0.28632035851478577 -0.011102452874183655 
O 0.006273169536143541 -1.2502785921096802 0.292572557926178 
C -0.9574006199836731 -0.34084200859069824 0.5804876089096069 
H 1.9602550268173218 -0.421747088432312 0.6393531560897827 
H 1.360466480255127 -0.34980204701423645 -1.073222041130066 
H -1.8592735528945923 0.06709799915552139 -1.0537655353546143 
H -1.9946601390838623 -0.29326868057250977 -0.23208726942539215 
