14

C -0.14206776022911072 -0.5359471440315247 -1.6350361108779907 
C 0.8361392021179199 0.4086589515209198 0.6856839060783386 
C -0.29304239153862 1.2743936777114868 0.36161938309669495 
O -1.3242371082305908 0.3506375551223755 -0.28322795033454895 
C 0.609843909740448 -0.847133219242096 1.356016993522644 
O -0.37864673137664795 -1.5913567543029785 1.192213535308838 
H -0.22854648530483246 -1.5426526069641113 -1.2381725311279297 
H -0.8961005806922913 -0.20900267362594604 -2.346731185913086 
H 0.8721445798873901 -0.17256364226341248 -1.8184404373168945 
H 1.8691304922103882 0.676003098487854 0.46453937888145447 
H -0.8168212175369263 1.701080322265625 1.2317382097244263 
H -0.11361902952194214 2.035186290740967 -0.39514681696891785 
H -1.3895115852355957 -0.417923241853714 0.323270320892334 
H 1.3953347206115723 -1.129380464553833 2.1016733646392822 
