16

O 1.406672716140747 -0.6171990036964417 -2.3351006507873535 
C 0.11159783601760864 -0.9379924535751343 -2.0717077255249023 
C -0.2602458596229553 -1.0471357107162476 -0.12745384871959686 
C -0.25213393568992615 0.09070014953613281 0.8451114892959595 
C 0.418042927980423 0.4141577482223511 2.138005018234253 
N -0.9984367489814758 0.14050078392028809 2.091895580291748 
C -0.2806890308856964 0.7932080626487732 -0.42432960867881775 
H 1.5203657150268555 0.25091344118118286 -2.763410806655884 
H -0.6109636425971985 -0.2249130755662918 -2.489318609237671 
H -1.210343837738037 -1.5766589641571045 -0.1843070685863495 
H 0.5839112997055054 -1.7390086650848389 -0.027235180139541626 
H 0.7626937031745911 1.4461760520935059 2.2567191123962402 
H 1.0355234146118164 -0.34610986709594727 2.63167405128479 
H -1.636709213256836 0.9301674962043762 2.120518445968628 
H 0.6266614198684692 1.2153940200805664 -0.8513100147247314 
H -1.2159466743469238 1.2077996730804443 -0.8097499012947083 
