11

O -2.352485179901123 0.3255113363265991 1.432870864868164 
C -1.199888825416565 0.02012777142226696 1.0299361944198608 
N -0.0865170881152153 0.4639681279659271 1.5985324382781982 
C 0.7865816950798035 0.5894215106964111 -0.5112496614456177 
C 0.2227453738451004 -0.8334665894508362 -0.6117157340049744 
O -1.1148052215576172 -0.8460374474525452 -0.054975636303424835 
H 0.642383337020874 1.0352400541305542 0.6327085494995117 
H 0.23238907754421234 1.3097707033157349 -1.1235965490341187 
H 1.8722891807556152 0.6211779117584229 -0.674979567527771 
H 0.13877640664577484 -1.1523622274398804 -1.659001350402832 
H 0.8585311770439148 -1.5333514213562012 -0.05852951481938362 
