12

C -0.1188635528087616 -0.6939854025840759 1.2984620332717896 
C 0.2706771194934845 -0.4685390889644623 -0.13815747201442719 
N 1.1636526584625244 -1.1531637907028198 -0.8393841981887817 
N -0.29801398515701294 0.35777488350868225 -1.0434460639953613 
C -0.8689770698547363 1.5944088697433472 -0.7454288005828857 
O -1.7945605516433716 1.715827465057373 0.0691286101937294 
H 0.7505448460578918 -0.5677304863929749 1.9541035890579224 
H -0.8969154953956604 0.014634679071605206 1.5966415405273438 
H -0.5225306749343872 -1.7042396068572998 1.4366146326065063 
H 2.145388126373291 -1.1630107164382935 -0.5132268071174622 
H 0.5809308290481567 -0.38139232993125916 -1.799654245376587 
H -0.41133227944374084 2.449415683746338 -1.2756531238555908 
