13

C -1.696286916732788 -0.17994660139083862 0.4622720181941986 
C -0.1870870590209961 -0.41931769251823425 0.22702659666538239 
C 0.20791584253311157 -0.29764387011528015 -1.1785569190979004 
N 0.5468668341636658 0.7052081823348999 0.8315958380699158 
C 1.8059734106063843 0.7368905544281006 0.3598342537879944 
O 2.705026149749756 1.5094773769378662 0.6800912022590637 
H -1.8600724935531616 -0.11816731840372086 1.545093297958374 
H -2.296154499053955 -0.9968259930610657 0.04270775988698006 
H -2.003877639770508 0.7711216807365417 0.01067830715328455 
H 0.08982256054878235 -1.3964953422546387 0.6522933840751648 
H 0.6721966862678528 -1.0861703157424927 -1.7724710702896118 
H -0.03472557291388512 0.632774293422699 -1.690962791442871 
H 2.0563485622406006 -0.06261395663022995 -0.4451987147331238 
