15

C -1.6626664400100708 -0.7984682321548462 -0.4132542312145233 
C -0.4939607083797455 0.13962244987487793 -0.6293259859085083 
N 0.061516713351011276 0.8127028346061707 0.6416051983833313 
C 1.3908333778381348 0.9814984202384949 -0.04907282441854477 
C 0.9962831735610962 -0.3574988842010498 -0.6933446526527405 
N 1.053841233253479 -1.4709447622299194 0.07986746728420258 
O 1.445838212966919 -1.1738861799240112 1.3259474039077759 
H -2.554166555404663 -0.23096543550491333 -0.10686423629522324 
H -1.4311870336532593 -1.5559238195419312 0.34258827567100525 
H -1.8971855640411377 -1.3126360177993774 -1.3548849821090698 
H -0.7330026030540466 0.924929141998291 -1.3658339977264404 
H -0.4352200925350189 1.598852276802063 1.0846269130706787 
H 2.2390835285186768 1.009350299835205 0.6378954648971558 
H 1.383963942527771 1.815788745880127 -0.7616900205612183 
H 0.5800777673721313 -0.10594690591096878 1.355653166770935 
