13

C 0.9733307957649231 0.6333120465278625 0.21468204259872437 
C -0.3914053440093994 0.13094675540924072 0.0548824667930603 
C -0.6067786812782288 -1.1959985494613647 -0.48500296473503113 
O -1.3435808420181274 1.050872564315796 -0.39126357436180115 
C -0.31411734223365784 0.07682926952838898 1.6490968465805054 
N -0.3608857989311218 -0.39191439747810364 2.72756028175354 
H 1.0653482675552368 0.12210678309202194 -1.7232853174209595 
H 1.8025720119476318 -0.05742621049284935 0.30266013741493225 
H 1.1468570232391357 1.655434012413025 0.5763003826141357 
H -1.6425291299819946 -1.5450026988983154 -0.5369955897331238 
H 0.5393821001052856 -0.48629024624824524 -1.8485506772994995 
H 0.17372623085975647 -1.9346407651901245 -0.35618704557418823 
H -1.0419195890426636 1.941771388053894 -0.18389686942100525 
