13

O 1.4588218927383423 -1.8912495374679565 -0.9912071228027344 
N 1.2587858438491821 -1.4746489524841309 0.3281705677509308 
C 0.4155888259410858 -0.45417520403862 0.3718004822731018 
C -0.03395100310444832 0.44426044821739197 -0.7692345976829529 
C -0.9152102470397949 1.4260426759719849 -0.01025561522692442 
C -0.22211991250514984 -0.10702124983072281 1.5936453342437744 
H 1.982482671737671 -2.7067198753356934 -0.9262900352478027 
H 0.8440729379653931 0.8972285985946655 -1.2585368156433105 
H -0.5888662934303284 -0.12294084578752518 -1.5350571870803833 
H -1.9935953617095947 1.3842262029647827 -0.19476887583732605 
H -0.546248733997345 2.4576218128204346 0.07559212297201157 
H -0.8710907101631165 1.0509065389633179 1.1985697746276855 
H -0.788669764995575 -0.9035300612449646 2.1175718307495117 
