11

O -2.2499444484710693 -0.7694522738456726 0.15998494625091553 
C -0.9628564119338989 -0.36196714639663696 0.23328381776809692 
N 0.07109237462282181 -0.9331491589546204 -0.33147308230400085 
C 1.092168927192688 0.021877985447645187 -0.03545713052153587 
O 2.3896067142486572 -0.4053855836391449 -0.18237769603729248 
C 0.6781778931617737 1.1666146516799927 0.7681791186332703 
N -0.6911097168922424 0.8724509477615356 0.7974067330360413 
H -2.303473472595215 -1.4540953636169434 -0.5346442461013794 
H 2.4503071308135986 -0.7919694185256958 -1.0805773735046387 
H 0.9411267042160034 1.0648263692855835 -0.6707849502563477 
H -1.4150954484939575 1.5902490615844727 0.8764598369598389 
