10

N 0.189104363322258 1.609879493713379 0.14185252785682678 
C -0.06972053647041321 0.18930061161518097 0.2273217737674713 
C 1.02779221534729 -0.39490410685539246 -0.3825024962425232 
O 0.6025003790855408 -1.7389726638793945 -0.4989881217479706 
C -0.6654542088508606 -1.7682840824127197 -0.0014307345263659954 
N -1.1737889051437378 -0.609765350818634 0.3982778787612915 
H 0.3623305857181549 2.1012771129608154 1.0200742483139038 
H -0.3538130819797516 2.1899032592773438 -0.49620380997657776 
H 1.2661648988723755 1.14499831199646 -0.40292808413505554 
H -1.1851158142089844 -2.7234325408935547 -0.0054731047712266445 
