15

C 1.4861576557159424 -0.6317062377929688 -0.9891968369483948 
C 1.1106092929840088 -0.034335192292928696 0.35363316535949707 
N 0.513166606426239 -0.8125050663948059 1.412786841392517 
C -0.34455356001853943 0.2044120877981186 0.7024741768836975 
C -1.5597045421600342 -0.10824525356292725 -0.10466687381267548 
C -0.6723795533180237 1.4953316450119019 1.3413379192352295 
N -1.598892331123352 1.9323830604553223 0.5852243900299072 
H 2.463196039199829 -1.1308611631393433 -0.9167447686195374 
H 0.7492805123329163 -1.3739181756973267 -1.3121771812438965 
H 1.5476391315460205 0.1621650904417038 -1.7600072622299194 
H 1.8074119091033936 0.7201099991798401 0.7472010850906372 
H 0.1743514984846115 -1.7261205911636353 1.0901000499725342 
H -2.4447200298309326 -0.4290418326854706 0.43003541231155396 
H -1.4841707944869995 -0.3829677700996399 -1.1718239784240723 
H -1.7473918199539185 2.1152994632720947 -0.4081764221191406 
