16

C 0.06001594290137291 1.1836910247802734 -1.492211103439331 
O -0.32649755477905273 1.9338511228561401 -0.35301074385643005 
C -0.7052211165428162 1.1446850299835205 0.7848957777023315 
C 0.3339017927646637 0.19965583086013794 1.265201449394226 
N 0.8475459218025208 -1.377823829650879 -0.33754807710647583 
C -0.029287610203027725 -2.1591379642486572 0.2527141273021698 
O -0.9354767203330994 -1.7270457744598389 1.014367699623108 
H -0.433066725730896 0.2007351666688919 -1.5703413486480713 
H -0.2169288694858551 1.7922677993774414 -2.367821216583252 
H 1.1503056287765503 1.0414032936096191 -1.5015181303024292 
H -0.8403041958808899 1.8941773176193237 1.5897449254989624 
H -1.6708837747573853 0.662086546421051 0.6148325800895691 
H 1.364648699760437 0.4577767252922058 1.0126785039901733 
H 0.17468930780887604 -0.21765229105949402 2.2553277015686035 
H 1.1658908128738403 -1.7670992612838745 -1.2605550289154053 
H 0.060668304562568665 -3.2615702152252197 0.09324303269386292 
