12

N 0.7216188311576843 1.4328774213790894 1.2855665683746338 
C 0.3097333610057831 0.3279114365577698 0.6685363054275513 
C -0.8070517182350159 0.7006350755691528 -0.18201979994773865 
N -0.7954369187355042 -0.3488084077835083 -1.186510443687439 
C 0.08181487023830414 -1.37305748462677 -0.8809786438941956 
O 0.2992340624332428 -2.4195396900177 -1.452202320098877 
N 0.7793372273445129 -0.8806689977645874 0.2975853979587555 
H 0.8068941235542297 1.3775684833526611 2.319247245788574 
H -0.16864830255508423 1.9556858539581299 0.3767194449901581 
H -1.779512882232666 0.7401267290115356 0.3387034237384796 
H -1.132277250289917 -0.23840931057929993 -2.1351208686828613 
H 1.6842944622039795 -1.2743213176727295 0.5504735112190247 
