17

C -0.6600914597511292 -1.0143717527389526 -2.02607798576355 
C -0.18124358355998993 -0.2491397261619568 -0.8470422625541687 
C -0.4352896213531494 1.1828508377075195 -0.5609205365180969 
O 0.766508936882019 1.5538920164108276 0.20955783128738403 
C 1.2211180925369263 0.36077192425727844 0.8132854700088501 
C 0.6494696140289307 0.13701315224170685 2.199317693710327 
O 0.7934861779212952 -0.7515192627906799 -0.09877185523509979 
H -1.0123459100723267 -2.01884388923645 -1.759475827217102 
H -1.4666314125061035 -0.4616629481315613 -2.513385057449341 
H 0.19144029915332794 -1.114187240600586 -2.716113567352295 
H -1.7001328468322754 -0.5451343655586243 0.20711572468280792 
H -1.5316373109817505 0.47116920351982117 0.08621308952569962 
H -0.4728055000305176 1.8578153848648071 -1.4172228574752808 
H 2.3155200481414795 0.3249780535697937 0.7994945645332336 
H 0.9836837649345398 0.9444957375526428 2.86037278175354 
H 0.9810881018638611 -0.8236007690429688 2.611321210861206 
H -0.4421375095844269 0.1454739272594452 2.1523313522338867 
