14

C -1.572941780090332 0.7404868602752686 -0.06075117364525795 
C -1.1069636344909668 -0.6207959055900574 -0.6156315207481384 
C 0.3210592269897461 -0.6403640508651733 -0.9887048006057739 
C 1.4649559259414673 -0.5703952312469482 -1.5495892763137817 
C 1.5884864330291748 -0.34454354643821716 0.2777470648288727 
O 1.8200995922088623 1.0002628564834595 0.5463350415229797 
H -1.4106940031051636 1.5312957763671875 -0.8032647371292114 
H -2.642270088195801 0.6992628574371338 0.18622975051403046 
H -1.0155657529830933 1.010235071182251 0.8445137143135071 
H -1.324036955833435 -1.4241251945495605 0.10671981424093246 
H -1.6708027124404907 -0.8673418164253235 -1.5287413597106934 
H 2.470407485961914 -0.9931531548500061 0.3224267065525055 
H 0.8848431706428528 -0.7048138976097107 1.0428978204727173 
H 2.3635611534118652 1.3327924013137817 -0.1954999715089798 
