13

N -0.6960394382476807 0.8877915740013123 -1.4263747930526733 
C -0.27999576926231384 -0.3619898855686188 -1.3825874328613281 
C 0.5812013745307922 -0.742193877696991 -0.014558563008904457 
C 0.7794255018234253 0.4628151059150696 0.9142352342605591 
C -0.6346064805984497 0.42044806480407715 1.283193826675415 
O -0.2777402400970459 -1.3482458591461182 -2.1058454513549805 
H -1.4089689254760742 1.0087878704071045 -2.152841806411743 
H 1.5274039506912231 -1.0616278648376465 -0.45890358090400696 
H 0.19271162152290344 -1.6217210292816162 0.497261106967926 
H 1.4792207479476929 0.29321038722991943 1.7435718774795532 
H 1.0290220975875854 1.373530626296997 0.344891220331192 
H -0.9158154726028442 -0.25638672709465027 2.080141305923462 
H -1.3758188486099243 0.94558185338974 0.6778169274330139 
