15

C -1.9359710216522217 0.7515015602111816 0.5764317512512207 
N -0.6130385994911194 0.1391599029302597 0.5527263283729553 
C 0.32433050870895386 0.44254419207572937 -0.3029126822948456 
C 1.686750888824463 -0.19258078932762146 -0.3038678765296936 
O 2.573625326156616 0.8018255233764648 0.23433086276054382 
C -0.42603713274002075 -1.9224969148635864 -1.2861005067825317 
N -0.541600227355957 -2.4982197284698486 -0.2508663535118103 
H -2.6161487102508545 0.10287254303693771 0.005756854545325041 
H -2.28585147857666 0.8279644250869751 1.6120820045471191 
H -1.8984876871109009 1.7472302913665771 0.12242213636636734 
H -0.5952582359313965 -0.875139594078064 0.8083053231239319 
H 0.21431225538253784 1.3742200136184692 -0.8613513708114624 
H 2.00268816947937 -0.38699352741241455 -1.330932855606079 
H 1.6862311363220215 -1.140990138053894 0.24660590291023254 
H 2.4244556427001953 0.8291021585464478 1.1984655857086182 
