15

C 2.186335802078247 0.5462111234664917 0.000957850890699774 
O 0.7694019675254822 0.519634485244751 -0.029693838208913803 
C 0.2408955842256546 -0.7887001037597656 0.13557828962802887 
C -1.278404712677002 -0.7103853225708008 0.19348463416099548 
C -1.9829305410385132 0.3341125547885895 1.0041238069534302 
N -1.87233304977417 0.1703014075756073 -0.8427689671516418 
H 2.625384569168091 -0.07667317986488342 -0.7994148135185242 
H 2.575742483139038 0.19232779741287231 0.9726035594940186 
H 2.4886059761047363 1.5894688367843628 -0.1480289250612259 
H 0.6108335852622986 -1.245883822441101 1.071938395500183 
H 0.5596157908439636 -1.4381364583969116 -0.7028085589408875 
H -1.7218796014785767 -1.7128957509994507 0.17183731496334076 
H -1.2560741901397705 1.149391770362854 1.182551622390747 
H -2.7431511878967285 0.5748236179351807 -0.1792464405298233 
H -1.185239553451538 0.9023541808128357 -1.0667020082473755 
