14

C -1.367825984954834 0.5852433443069458 0.07897358387708664 
C 0.07886777073144913 0.5390281081199646 0.22906875610351562 
O 0.8136993646621704 1.1153181791305542 -0.7084276080131531 
C 0.11066976189613342 -1.1015362739562988 0.038896869868040085 
C 1.577664852142334 -1.4824528694152832 0.04222499951720238 
O 2.0959930419921875 -2.1221444606781006 -0.8569911122322083 
H -1.0194180011749268 2.5209848880767822 -0.31410133838653564 
H -2.058110475540161 0.42428284883499146 0.9005600214004517 
H -1.7765320539474487 0.5764353275299072 -0.9319806694984436 
H 0.41702258586883545 0.6677451133728027 1.2720595598220825 
H -0.29746803641319275 2.385009288787842 -0.6708609461784363 
H -0.33682781457901 -1.423180103302002 -0.9103325605392456 
H -0.3693355321884155 -1.5921642780303955 0.9021865725517273 
H 2.1316003799438477 -1.0925688743591309 0.928723931312561 
