14

O -1.6167466640472412 1.5819612741470337 1.64039945602417 
C -0.9185873866081238 0.3609754741191864 1.2981555461883545 
C -0.3390207886695862 0.49858358502388 -0.04656296595931053 
C -0.07840119302272797 -0.803932249546051 -0.802272617816925 
C 1.4069613218307495 -0.528805673122406 -1.0992820262908936 
O 1.7661166191101074 0.39605650305747986 -0.053562868386507034 
H -2.1359031200408936 1.8138377666473389 0.8476865887641907 
H -0.19598786532878876 0.1434043049812317 2.0953214168548584 
H -1.624429702758789 -0.4953742027282715 1.3032057285308838 
H 1.0132052898406982 1.1583303213119507 -0.17977653443813324 
H -0.17592386901378632 -1.721793532371521 -0.1886983960866928 
H -0.718477189540863 -0.9043022394180298 -1.6914904117584229 
H 1.5620472431182861 -0.07555311918258667 -2.098757028579712 
H 2.055147647857666 -1.423388123512268 -1.0243661403656006 
