16

C 2.232043743133545 0.30954572558403015 0.3708834648132324 
C 1.132951021194458 -0.7289732694625854 0.1489817202091217 
C 0.3527340888977051 -1.1718655824661255 1.2659096717834473 
C -0.8556523323059082 -0.9595458507537842 1.5246726274490356 
C -2.008753776550293 -0.39219313859939575 1.0661722421646118 
C -1.1307188272476196 0.7237286567687988 -0.9870594143867493 
H 1.867687702178955 1.1230533123016357 1.0109822750091553 
H 3.1107890605926514 -0.14275221526622772 0.8511717915534973 
H 2.550968647003174 0.7324659824371338 -0.5921515822410583 
H 0.18349626660346985 -0.1758747696876526 -0.4047900438308716 
H 1.4524056911468506 -1.5316407680511475 -0.5338437557220459 
H -2.362191915512085 0.5621495246887207 1.463093638420105 
H -2.76287841796875 -1.0024852752685547 0.5642247200012207 
H -0.6953883767127991 0.4620283246040344 -1.9571411609649658 
H -2.2183544635772705 0.6856054067611694 -1.047245979309082 
H -0.7714122533798218 1.6806550025939941 -0.6015321612358093 
