15

C 1.2440030574798584 0.8753124475479126 -0.17004211246967316 
C 0.0120883509516716 0.026614557951688766 -0.36109769344329834 
O -0.7729987502098083 0.31174856424331665 -1.5033677816390991 
C 0.24113570153713226 -1.5129618644714355 -0.2693769633769989 
O -0.9327053427696228 -2.2571544647216797 -0.4779241681098938 
C -0.342785507440567 0.7174513339996338 0.909978449344635 
C -1.2375627756118774 1.6133463382720947 1.3792401552200317 
H 1.2219451665878296 1.9160020351409912 -0.49863308668136597 
H 2.224543809890747 0.40747255086898804 -0.06941310316324234 
H 0.5796017050743103 0.5355183482170105 1.5938200950622559 
H -1.6335633993148804 0.6475129127502441 -1.180628776550293 
H 1.0065028667449951 -1.7511413097381592 -1.0439398288726807 
H 0.6635088920593262 -1.7624366283416748 0.7140387296676636 
H -1.3291560411453247 -1.9337613582611084 -1.3016434907913208 
H -0.9445576667785645 2.1664764881134033 2.278989315032959 
