14

O -1.119528889656067 1.2540462017059326 -1.8064887523651123 
C -0.8221845626831055 -0.29665225744247437 -0.9539439678192139 
C -0.846717119216919 -0.19390808045864105 0.5636497735977173 
C 0.5626851916313171 0.5110059380531311 0.5614252686500549 
C 1.0748217105865479 -0.8351132869720459 1.1189260482788086 
N -0.18647384643554688 -1.4994972944259644 0.6811784505844116 
C 0.45929446816444397 0.3180599808692932 -0.9417173862457275 
H -1.337135672569275 1.8622440099716187 -1.0357580184936523 
H -1.284603476524353 -1.061500906944275 -1.576072335243225 
H -1.7154300212860107 0.06950179487466812 1.1766952276229858 
H 0.8297010064125061 1.4744644165039062 1.0033926963806152 
H 1.1769589185714722 -0.8194670677185059 2.2231593132019043 
H 2.019812822341919 -1.2430458068847656 0.7211220860481262 
H 1.1887990236282349 0.45986229181289673 -1.7355685234069824 
