12

C 0.4863143563270569 -0.7475941777229309 0.6911264657974243 
C -0.9838205575942993 -0.3209350109100342 0.7370104789733887 
C -1.3193825483322144 0.8054522275924683 -0.05683378130197525 
C -0.054648641496896744 1.0884698629379272 -0.8147063255310059 
O 0.3857654929161072 -0.02308766543865204 -1.6940181255340576 
C 1.0351462364196777 0.16803112626075745 -0.41781070828437805 
H 0.9522331953048706 -0.5162644386291504 1.6574745178222656 
H 0.6617471575737 -1.8133633136749268 0.4617273509502411 
H -1.664076805114746 -0.6971244812011719 1.5077967643737793 
H -1.696021556854248 -0.43867000937461853 -0.3333190381526947 
H 0.09653925150632858 2.072199583053589 -1.2670838832855225 
H 2.1002044677734375 0.4228862524032593 -0.47136390209198 
