16

N -0.5924900770187378 -0.34252479672431946 1.7340667247772217 
C -0.13301847875118256 -1.459714651107788 1.0960942506790161 
O -0.25028377771377563 -2.589953899383545 1.5147497653961182 
C 0.4971626400947571 -1.1917476654052734 -0.3221690356731415 
C 0.8928534388542175 0.1651369333267212 -0.8120506405830383 
C -0.21261820197105408 1.017055630683899 -1.316730260848999 
O -1.2237497568130493 1.314062476158142 -0.33454686403274536 
H -0.5768611431121826 -0.4029180705547333 2.776616334915161 
H -0.4040931463241577 0.5679656267166138 1.2909194231033325 
H 1.400176763534546 -1.8300164937973022 -0.3568522334098816 
H -0.24586382508277893 -1.602022409439087 -1.0270264148712158 
H 1.811617374420166 0.9166256785392761 -0.05158506706357002 
H 1.4178588390350342 1.3532800674438477 0.5424426198005676 
H 0.23151437938213348 1.962906837463379 -1.701137900352478 
H -0.6097054481506348 0.4906412661075592 -2.2002410888671875 
H -2.002499580383301 1.6312239170074463 -0.8325503468513489 
