13

C 0.06843020021915436 1.356628656387329 -0.6747999787330627 
O -0.7929112315177917 1.260829210281372 0.4805634915828705 
C -0.38273096084594727 0.06854769587516785 1.1052230596542358 
C -0.581170380115509 -1.2587347030639648 0.2633547782897949 
O -0.2107277661561966 -0.9680336713790894 -1.0732768774032593 
C 0.8315391540527344 0.0026178108528256416 -0.6895487904548645 
C 0.981635570526123 -0.40594282746315 0.806411623954773 
H 0.7545871734619141 2.211768627166748 -0.5338273644447327 
H -0.5288006663322449 1.4970991611480713 -1.5867881774902344 
H -0.8077518939971924 -0.0005686738877557218 2.1225576400756836 
H -1.462537407875061 -1.886986255645752 0.4268478751182556 
H 1.7005906105041504 -0.06367401033639908 -1.3566046953201294 
H 0.4298476576805115 -1.8135513067245483 0.7098873853683472 
