17

O 2.6494741439819336 -0.16507738828659058 1.9045803546905518 
C 2.6454274654388428 -0.4079491198062897 0.7107795476913452 
C 1.4468661546707153 -0.25008243322372437 -0.19690486788749695 
C 0.1652688831090927 0.18328946828842163 0.518947184085846 
C -1.000518798828125 0.39696407318115234 -0.40755733847618103 
C -1.9055700302124023 -0.5770124197006226 -1.0999318361282349 
C -2.4169371128082275 0.5508812665939331 -0.28517448902130127 
H 3.5676751136779785 -0.7761294841766357 0.19405613839626312 
H 1.7129268646240234 0.4812375009059906 -0.9833095073699951 
H 1.295575737953186 -1.200228214263916 -0.7378244996070862 
H 0.34721052646636963 1.0866732597351074 1.1163755655288696 
H -0.1554505079984665 -0.5937731862068176 1.2289053201675415 
H -0.30447474122047424 1.3600281476974487 -1.3948478698730469 
H -2.0108535289764404 -0.5859988927841187 -2.1942367553710938 
H -1.8135706186294556 -1.5856739282608032 -0.672775149345398 
H -1.2664250135421753 1.4838082790374756 -0.9489120841026306 
H -2.984400749206543 0.6560690402984619 0.6320124268531799 
