9

N -0.324282169342041 -0.2581508457660675 -1.3354053497314453 
C -0.482326477766037 0.092783622443676 0.0015265311812981963 
O -0.2914472222328186 -0.9595041871070862 0.9293820858001709 
C 0.960603654384613 -0.5248531699180603 0.42115697264671326 
O 1.4053359031677246 -0.9057804346084595 -0.7788976430892944 
C -0.9883302450180054 1.3798794746398926 0.3858792781829834 
N -1.2902482748031616 2.4785702228546143 0.7012906670570374 
H -0.6454732418060303 -1.2230387926101685 -1.4716624021530151 
H 1.656167984008789 -0.07990612089633942 1.1467299461364746 
