17

O 1.817635416984558 -0.012382944114506245 1.5402498245239258 
C 1.8012052774429321 -0.5865589380264282 0.33346813917160034 
C 0.47180119156837463 -0.8988880515098572 -0.334469199180603 
C -0.4821765720844269 0.2873496115207672 -0.3669981062412262 
C -1.9882928133010864 0.04316800460219383 -0.6070070862770081 
O -2.3493597507476807 0.8610731363296509 0.5316616892814636 
C -0.9589702486991882 0.9024524092674255 0.9676501154899597 
H 2.2654688358306885 0.6310213208198547 0.41846704483032227 
H 2.599372625350952 -1.3193672895431519 0.08187384903430939 
H 2.3268299102783203 0.4717058837413788 -0.5937710404396057 
H 0.04833431914448738 -1.7050544023513794 0.29247406125068665 
H 0.6364978551864624 -1.3145464658737183 -1.3413132429122925 
H -0.08586625754833221 1.0510711669921875 -1.0512702465057373 
H -2.2921531200408936 -1.010933756828308 -0.47225221991539 
H -2.4142019748687744 0.42538121342658997 -1.5469099283218384 
H -0.625441312789917 1.9250956773757935 1.1902166604995728 
H -0.7774325013160706 0.2600284814834595 1.8399457931518555 
