14

O 1.859492301940918 -1.0876470804214478 0.9678457975387573 
C 1.0251680612564087 -0.5599995851516724 0.010420989245176315 
C -0.4369702637195587 -1.0540961027145386 -0.06524375081062317 
N -1.2302974462509155 0.03387251868844032 0.5531995296478271 
C -0.40162065625190735 1.1777310371398926 0.35515981912612915 
C -0.5305206775665283 1.832561731338501 -0.9319770932197571 
O -0.2953488528728485 1.3466624021530151 -2.056445837020874 
H 1.3087633848190308 -1.509682297706604 1.6588486433029175 
H 1.5634269714355469 -0.4064423739910126 -0.919522762298584 
H -0.5557748675346375 -2.0441513061523438 0.39496633410453796 
H -0.768283486366272 -1.1159701347351074 -1.1109517812728882 
H -1.4410563707351685 -0.11204589903354645 1.5482314825057983 
H 0.8593912124633789 0.6502204537391663 0.409329891204834 
H -0.9563688039779663 2.8489863872528076 -0.8138613104820251 
