16

C -1.986280918121338 -0.145464688539505 -0.39972561597824097 
C -0.6749972105026245 -0.7459506988525391 -0.8502144813537598 
O 0.10539449006319046 -0.15254122018814087 -1.6556744575500488 
C 0.6128548979759216 -0.6979780197143555 1.1579798460006714 
N 1.6211248636245728 -0.019931714981794357 0.6134348511695862 
C 1.3331276178359985 1.3500025272369385 0.08680757880210876 
O 0.3841756582260132 1.9932817220687866 0.6183433532714844 
H -2.339926242828369 -0.6015660166740417 0.5345008969306946 
H -2.75249981880188 -0.33217114210128784 -1.1725397109985352 
H -1.874982237815857 0.9341066479682922 -0.26339611411094666 
H -0.5474370718002319 -1.8384366035461426 -0.7310404181480408 
H 0.9166944026947021 0.817959725856781 -0.9756890535354614 
H -0.11347104609012604 -0.1009957566857338 1.7026376724243164 
H 0.7311810255050659 -1.7609847784042358 1.3444032669067383 
H 2.330843448638916 -0.5565614700317383 0.1098475307226181 
H 2.3164329528808594 1.8199265003204346 -0.15837116539478302 
