13

C -0.5173991918563843 -0.28041836619377136 1.558016061782837 
C -0.11590675264596939 -0.6157655715942383 0.11976892501115799 
C -0.5622161626815796 0.3209789991378784 -0.9900245070457458 
C 1.2222975492477417 0.37493112683296204 -1.1747279167175293 
O 1.9274357557296753 0.7230099439620972 -2.1096198558807373 
N 1.3501169681549072 -0.5090847015380859 -0.10402654856443405 
H -0.05151903256773949 -0.9836230278015137 2.264974355697632 
H -0.2064376026391983 0.7328380942344666 1.8242833614349365 
H -1.6080241203308105 -0.33572134375572205 1.6810768842697144 
H -0.4136434495449066 -1.645888090133667 -0.11059433966875076 
H -0.911355197429657 -0.11905159056186676 -1.9337246417999268 
H -1.1146973371505737 1.2407785654067993 -0.7489525079727173 
H 1.0013483762741089 1.0970159769058228 -0.2764495611190796 
