13

C -1.5486563444137573 -1.3639283180236816 0.031278714537620544 
C -0.32683563232421875 -0.5671730637550354 0.5028506517410278 
O 0.8199921250343323 -0.7932479977607727 -0.24173367023468018 
C 1.7806320190429688 0.8013404011726379 -0.4140753746032715 
O 2.738424777984619 0.9213334321975708 0.30652984976768494 
C -0.3978368639945984 0.9068466424942017 0.24935543537139893 
C 0.40607213973999023 1.8222514390945435 -0.1114887073636055 
H -1.740179181098938 -1.177284836769104 -1.0321909189224243 
H -2.437446355819702 -1.0803419351577759 0.6131373643875122 
H -1.361135482788086 -2.4347681999206543 0.17640791833400726 
H -0.1955334097146988 -0.7119422554969788 1.5940520763397217 
H 1.7213084697723389 0.6541188955307007 -1.499072551727295 
H 0.49855464696884155 2.8904409408569336 -0.22195176780223846 
