15

C -0.21585914492607117 0.466922402381897 1.9893124103546143 
C -0.5769742131233215 0.8180400133132935 0.5440630912780762 
C -1.5342899560928345 -0.13002990186214447 -0.15818098187446594 
C 0.24339288473129272 0.26866087317466736 -0.559025228023529 
C 1.3800019025802612 -0.4467940032482147 -0.7006818056106567 
C 1.989359974861145 -0.9352551698684692 -1.9049978256225586 
O 2.487151622772217 -2.0660812854766846 -1.947163462638855 
H 0.6490278840065002 1.066437840461731 2.3045060634613037 
H 0.04405482858419418 -0.5894428491592407 2.096620798110962 
H -1.0706238746643066 0.7067452073097229 2.642486333847046 
H -0.8905266523361206 1.8679364919662476 0.4377097487449646 
H -2.4200356006622314 0.2558232545852661 -0.6681901216506958 
H -0.5169773697853088 0.15228654444217682 -1.4542253017425537 
H -1.5704072713851929 -1.1740641593933105 0.15596386790275574 
H 2.0027050971984863 -0.26118507981300354 -2.7781975269317627 
