13

C 0.3596869111061096 -1.66824209690094 0.008381713181734085 
O 1.61519193649292 -1.4578239917755127 0.15394477546215057 
C 0.3610972464084625 1.0333459377288818 -0.9145278334617615 
C -0.5317584872245789 1.7086458206176758 -0.03808165714144707 
O -1.3978831768035889 0.9339281916618347 -0.809818685054779 
C -0.5121158361434937 -0.5542616844177246 0.5155787467956543 
C 0.37711676955223083 0.661322295665741 0.5652474761009216 
H -0.26022592186927795 -2.2781436443328857 0.8621237277984619 
H -0.012242215685546398 -2.2065651416778564 -0.9069116115570068 
H 0.9625759124755859 1.029995322227478 -1.811794400215149 
H -0.6893032193183899 2.7371768951416016 0.287086546421051 
H -1.5291537046432495 -0.6053512692451477 0.8845479488372803 
H 1.2570136785507202 0.6659733057022095 1.2042231559753418 
