17

C -0.9563688039779663 1.691930890083313 0.47721022367477417 
C 0.5228506922721863 1.422586441040039 0.49198174476623535 
O 0.9692848920822144 0.5159250497817993 1.3997077941894531 
C 0.48540082573890686 -0.8480444550514221 1.2378567457199097 
C 0.6604258418083191 -1.2405815124511719 -0.22273285686969757 
C -0.4981929063796997 -0.9978027939796448 -1.1890454292297363 
C 0.7094554305076599 -0.10764995217323303 -1.2148531675338745 
H -1.5880777835845947 0.9745355844497681 1.0178395509719849 
H -1.3571630716323853 1.7680705785751343 -0.5467067360877991 
H -1.0802545547485352 2.676055908203125 0.9580960869789124 
H 0.9780198931694031 1.1206611394882202 -0.6337734460830688 
H -0.5668570399284363 -0.9215803146362305 1.5574649572372437 
H 1.0810941457748413 -1.4924012422561646 1.8933223485946655 
H 1.3034319877624512 -2.1052494049072266 -0.41504690051078796 
H -1.4311801195144653 -0.6026408672332764 -0.7720384001731873 
H -0.6292631030082703 -1.7509490251541138 -1.9786688089370728 
H 1.3973937034606934 -0.1028662696480751 -2.0606136322021484 
