18

C -0.15927870571613312 -0.3527352213859558 1.9920974969863892 
C 0.4672399163246155 -0.9270079135894775 0.7005616426467896 
C 0.15738576650619507 -0.13065806031227112 -0.5680107474327087 
C -0.03386017307639122 -0.9445677995681763 -1.848602294921875 
C 0.601447582244873 1.2205334901809692 -0.6520395278930664 
O -1.157310128211975 1.9765269756317139 -0.3020632565021515 
H -1.2502769231796265 -0.2435963749885559 1.8791953325271606 
H 0.2674398720264435 0.6286529898643494 2.2396535873413086 
H 0.03668097406625748 -1.020053744316101 2.8407785892486572 
H 1.5585355758666992 -1.0141466856002808 0.8463301062583923 
H 0.10902690142393112 -1.9541560411453247 0.5546942949295044 
H -0.9852147698402405 0.6906432509422302 -0.3807849586009979 
H -0.9079540967941284 -1.6122994422912598 -1.7463797330856323 
H -0.2112906128168106 -0.29650232195854187 -2.7180564403533936 
H 0.836808979511261 -1.57939875125885 -2.0630369186401367 
H 1.1431043148040771 1.6807981729507446 0.17746198177337646 
H 0.7225359678268433 1.6995362043380737 -1.621170997619629 
H -1.1950204372406006 2.178431749343872 0.6693722009658813 
