13

C -1.0296212434768677 0.6439855098724365 -1.0560317039489746 
C -0.4009965658187866 1.162699580192566 0.180296391248703 
C 0.2605445384979248 0.2929996848106384 1.1158850193023682 
N 1.4551527500152588 -0.3193998634815216 0.5042870044708252 
C 1.2251986265182495 -1.5468156337738037 0.06289670616388321 
O 0.12259382009506226 -2.201691150665283 0.031993571668863297 
H -1.1187515258789062 -0.44854533672332764 -1.0101404190063477 
H -0.44754868745803833 0.9103412628173828 -1.9526896476745605 
H -2.0305683612823486 1.0785114765167236 -1.1900510787963867 
H -0.31568413972854614 2.254460573196411 0.27259495854377747 
H 0.5207139253616333 0.8156826496124268 2.0506653785705566 
H -0.3764628469944 -0.6048399209976196 1.3286792039871216 
H 2.135429620742798 -2.0373892784118652 -0.33838576078414917 
