11

O 1.8714580535888672 0.25247082114219666 -0.4078252911567688 
C 1.1228735446929932 0.827664852142334 0.34420469403266907 
C -0.09593843668699265 0.1210913434624672 1.014430046081543 
N -0.9814028739929199 -0.11748065799474716 -0.09981866925954819 
C -0.29582592844963074 -1.0325509309768677 -1.647985816001892 
O -0.3125499486923218 -2.1967062950134277 -1.5697782039642334 
H 1.2314035892486572 1.9174294471740723 0.533752977848053 
H 0.26169395446777344 -0.8366122841835022 1.4342724084854126 
H -0.4318693280220032 0.7457675933837891 1.8498715162277222 
H -1.948459267616272 0.19878613948822021 0.052882663905620575 
H -0.42138317227363586 0.1201397180557251 -1.5040065050125122 
