14

C 1.6726256608963013 -0.41040194034576416 0.6371698975563049 
C 0.5242534279823303 0.5464643836021423 0.5299084186553955 
O 0.9691151976585388 1.7611380815505981 0.11842189729213715 
C -0.8582054376602173 -1.1373392343521118 -0.24042724072933197 
C -1.9030580520629883 -0.18462619185447693 -0.6700499653816223 
O -0.6391931772232056 0.35538578033447266 -1.0601983070373535 
H 1.963658332824707 -0.7484560012817383 -0.3657573461532593 
H 2.540126323699951 0.10925303399562836 1.077081561088562 
H 1.38157320022583 -1.2815617322921753 1.2266829013824463 
H -0.2615082859992981 0.5400026440620422 1.2835848331451416 
H 0.1910465508699417 2.335960865020752 -0.023040005937218666 
H -0.6577296853065491 -1.854272723197937 -1.061116099357605 
H -2.463364839553833 0.4036453068256378 0.0742495134472847 
H -2.5043585300445557 -0.40479806065559387 -1.5633879899978638 
