14

N -2.434718370437622 0.49257978796958923 -0.16319528222084045 
C -1.111674189567566 0.03498271480202675 -0.030653448775410652 
C 0.023339293897151947 0.7837916612625122 0.3659079074859619 
C 1.1525474786758423 0.029469123110175133 -0.022377455607056618 
N 2.5047848224639893 0.28898337483406067 0.20806919038295746 
C 0.6613345146179199 -1.128123164176941 -0.6791335940361023 
N -0.7026636600494385 -1.2113771438598633 -0.692033052444458 
H -2.9023735523223877 0.6418465375900269 0.7309125065803528 
H -2.9664876461029053 -0.04783128947019577 -0.8155398368835449 
H 0.029875800013542175 1.7979028224945068 0.7678980827331543 
H 2.831836462020874 1.1631593704223633 -0.18091899156570435 
H 2.7787187099456787 0.21232125163078308 1.1911181211471558 
H 1.2572036981582642 -1.8742765188217163 -1.2064223289489746 
H -1.1217232942581177 -1.183428406715393 0.526368260383606 
