11

N 1.8813581466674805 -0.650305449962616 -0.6168110966682434 
C 0.7055776715278625 0.0011325274826958776 -0.3819476366043091 
N -0.19338734447956085 -1.001505970954895 -0.4166596233844757 
N -1.286803126335144 -0.6343202590942383 0.36659589409828186 
C -1.0586060285568237 0.6297906041145325 0.8355785608291626 
C 0.11667396128177643 1.127719521522522 0.275915265083313 
H 2.549535036087036 -0.12459155917167664 -1.2101972103118896 
H 0.828539252281189 -1.7043064832687378 -0.6580281257629395 
H -2.21197247505188 -0.9700736999511719 0.0882858857512474 
H -1.8498512506484985 1.18970787525177 1.3403228521347046 
H 0.518936276435852 2.1367533206939697 0.3769451677799225 
