15

O 0.08163946121931076 -0.6771991848945618 -1.9694851636886597 
C -0.25851237773895264 -1.2968432903289795 -0.730476438999176 
C -1.117803692817688 -0.36406415700912476 0.14360830187797546 
O -0.47932395339012146 0.8307790756225586 0.5978254675865173 
C 1.1454755067825317 1.519470453262329 0.053358323872089386 
C 1.6877015829086304 1.2863703966140747 1.342445969581604 
C 0.8304196000099182 0.47108548879623413 1.8375685214996338 
H -0.7612274289131165 -0.46400123834609985 -2.408100128173828 
H -0.7957819700241089 -2.2439632415771484 -0.9026884436607361 
H 0.6774811148643494 -1.530015230178833 -0.20025648176670074 
H -2.0106194019317627 -0.06904549151659012 -0.4291653633117676 
H -1.4791775941848755 -0.9325220584869385 1.02005934715271 
H 1.4088661670684814 0.8582789301872253 -0.7786095142364502 
H 0.8183361887931824 2.5184950828552246 -0.25420957803726196 
H 0.25252678990364075 0.09317435324192047 2.6781251430511475 
