14

C 1.149390459060669 -0.23493754863739014 -0.6606915593147278 
C -0.033518098294734955 -1.1581789255142212 -0.3622879981994629 
C -1.2650299072265625 -0.3639034628868103 0.027420302852988243 
C -0.4499199092388153 -0.9444255828857422 1.0595626831054688 
N -0.43106722831726074 0.5335904955863953 1.0314204692840576 
C 0.653668224811554 1.0132423639297485 0.09685009717941284 
C -0.4409084916114807 1.7013952732086182 -0.6840636730194092 
H 1.2707748413085938 -0.02560596726834774 -1.7303180694580078 
H 2.081779718399048 -0.6510645747184753 -0.25345689058303833 
H -0.1606166809797287 -2.13204026222229 -0.8377550840377808 
H -2.32383131980896 -0.3284899890422821 -0.18821856379508972 
H -0.6377272605895996 -1.50898015499115 1.9658409357070923 
H 1.4036657810211182 1.5971431732177734 0.6430608034133911 
H -0.78826504945755 2.532650947570801 -0.02583954855799675 
