9

O -2.0592041015625 -0.478262335062027 -0.6710318326950073 
C -0.8111726641654968 -0.24632418155670166 -0.2626597285270691 
N 0.1647978127002716 -1.2589114904403687 0.011593427509069443 
N 1.2598360776901245 -0.5676038861274719 0.20633704960346222 
N 1.2219799757003784 0.783568799495697 0.09351085126399994 
C -0.03466939926147461 1.016077995300293 -0.24749089777469635 
H -1.4174600839614868 -0.2475298047065735 0.7242735624313354 
H 2.1082253456115723 -1.0171910524368286 0.5412064790725708 
H -0.4173521101474762 2.019106864929199 -0.39062392711639404 
