21

C -0.06021779403090477 -2.447493553161621 0.9031932950019836 
C -0.16728271543979645 -1.235703706741333 1.8310059309005737 
C -0.3539856970310211 0.06781340390443802 1.0711078643798828 
O -1.5499862432479858 0.1061725988984108 0.4004705250263214 
C -1.765512466430664 1.0338048934936523 -0.5073137879371643 
C 0.623600423336029 0.546172559261322 -1.4579801559448242 
C 1.4232689142227173 1.8458722829818726 -1.3649109601974487 
H -0.9388203024864197 -2.520364999771118 0.23753221333026886 
H 0.00719032809138298 -3.3734490871429443 1.4923816919326782 
H 0.8272262215614319 -2.38277006149292 0.2460116297006607 
H 0.7538694739341736 -1.1405029296875 2.428365468978882 
H -0.9890174269676208 -1.3780046701431274 2.555645704269409 
H -0.15888240933418274 0.9773759841918945 1.6573678255081177 
H 0.3202449679374695 0.2870945930480957 -0.09855937212705612 
H -1.4081854820251465 2.0492360591888428 -0.3483905494213104 
H -2.6366233825683594 0.8362906575202942 -1.128022313117981 
H -0.04140175133943558 0.49443185329437256 -2.315566301345825 
H 1.2700706720352173 -0.3382013738155365 -1.5339481830596924 
H 0.7425258159637451 2.7022030353546143 -1.2325780391693115 
H 1.9776445627212524 2.0318140983581543 -2.3078250885009766 
H 2.1242735385894775 1.8382081985473633 -0.5279863476753235 
