14

C 0.8356931209564209 0.8774715065956116 0.7125070095062256 
C 0.6139427423477173 -0.487519234418869 0.48216453194618225 
C 1.005713701248169 -1.1535617113113403 -0.7899557948112488 
O -1.5399621725082397 -0.6600229740142822 0.07383009046316147 
C -2.08564829826355 0.4778732359409332 -0.11418702453374863 
O -1.481400728225708 1.5951111316680908 -0.29031631350517273 
H -0.29616430401802063 1.3592066764831543 0.3703696131706238 
H 1.518056035041809 1.3917843103408813 0.026118004694581032 
H 0.9291568398475647 1.2102943658828735 1.7555975914001465 
H 0.3105738162994385 -1.140891671180725 1.3134357929229736 
H 0.8642296195030212 -0.48069822788238525 -1.6591696739196777 
H 2.077528715133667 -1.410399317741394 -0.749923586845398 
H 0.44037407636642456 -2.0774784088134766 -0.9677575826644897 
H -3.1920928955078125 0.49883076548576355 -0.16271241009235382 
