7

O -2.5027899742126465 0.42552298307418823 1.0495845079421997 
C -2.1680960655212402 0.8471412062644958 0.002704109065234661 
C -0.1408754289150238 0.1483164280653 -0.5383756160736084 
C 0.9432072639465332 -0.38840749859809875 -0.2412412315607071 
C 2.1811575889587402 -0.8557828664779663 0.2053535282611847 
N 3.2544946670532227 -1.3547065258026123 0.39492475986480713 
H -1.5670982599258423 1.177916407585144 -0.87295001745224 
