11

O -2.2350096702575684 -1.0856921672821045 -0.6381286382675171 
C -1.8204256296157837 0.0009620190248824656 -0.266003280878067 
C -0.3935490548610687 0.24060186743736267 0.06961872428655624 
C 0.35300830006599426 1.5281972885131836 0.03927742689847946 
N 1.7043739557266235 1.105260968208313 0.049843572080135345 
C 1.7504448890686035 -0.21475310623645782 -0.025405827909708023 
N 0.526478111743927 -0.8103857636451721 0.00938685704022646 
H -2.4634947776794434 0.9010559916496277 -0.17088796198368073 
H -0.35901641845703125 0.9279140830039978 1.1003700494766235 
H 2.6579108238220215 -0.8130388259887695 -0.09200187027454376 
H 0.2894214987754822 -1.7960094213485718 -0.07525311410427094 
