17

C 1.5971198081970215 1.0123733282089233 -1.0818339586257935 
O 0.514340877532959 0.11869356036186218 -0.8852350115776062 
C 0.7448074817657471 -1.1745073795318604 0.08146876841783524 
C -0.49473246932029724 -1.6607390642166138 0.561154842376709 
O -1.0008727312088013 -1.1880158185958862 1.7888747453689575 
C -1.4778950214385986 0.7282635569572449 -0.29687535762786865 
O -1.3758655786514282 2.025944471359253 -0.6807928681373596 
H 2.1196367740631104 1.2568923234939575 -0.13585811853408813 
H 1.1639894247055054 1.9356532096862793 -1.500393033027649 
H 2.34207820892334 0.6286270022392273 -1.8025827407836914 
H 1.263309121131897 -1.8483930826187134 -0.6099444031715393 
H 1.4100302457809448 -0.7845636606216431 0.8636087775230408 
H -1.1237131357192993 -2.345775604248047 -0.0067031062208116055 
H -1.3266804218292236 -1.9555562734603882 2.294297933578491 
H -1.512519359588623 0.495657354593277 0.7667365670204163 
H -2.0973241329193115 0.16250529885292053 -0.984889566898346 
H -0.8512741327285767 2.50661563873291 -0.011547587811946869 
