12

C 1.4792970418930054 -1.2479629516601562 0.48491397500038147 
N 0.5415018200874329 -0.29423001408576965 -0.10396523028612137 
C -0.33016151189804077 0.30080634355545044 0.6396285891532898 
C -1.3187135457992554 1.2160627841949463 0.7934989929199219 
N -1.9429821968078613 1.099652886390686 -1.685834288597107 
C -0.8787229657173157 1.360116958618164 -2.1554574966430664 
H 1.2756785154342651 -1.52299165725708 1.5305060148239136 
H 1.462653398513794 -2.182783365249634 -0.11553797125816345 
H 2.5050888061523438 -0.8576781749725342 0.4200212359428406 
H -0.5709376335144043 0.06211133673787117 1.7469033002853394 
H -2.3444244861602783 0.8856703042984009 0.9957353472709656 
H 0.12172254174947739 1.1812258958816528 -2.5504119396209717 
