6

N 0.0756332129240036 -0.7848173975944519 -0.3436352610588074 
C 0.17046932876110077 0.5006921887397766 -0.007994364015758038 
O -0.07120048999786377 0.6660420894622803 1.2396345138549805 
H -0.1872144192457199 -0.6819125413894653 1.03969407081604 
H -0.2982279360294342 -1.0569652318954468 -1.2717357873916626 
H 0.3105403184890747 1.3569607734680176 -0.6559631824493408 
