17

C 0.142938494682312 -1.1976640224456787 1.8685131072998047 
C 0.6756540536880493 0.17242340743541718 1.7561291456222534 
C -0.05056006833910942 0.16161666810512543 0.4165348708629608 
C -1.3655084371566772 0.5595070123672485 0.28273987770080566 
C -0.010638918727636337 1.0191915035247803 -1.8102784156799316 
C 0.01378258503973484 -0.4111080765724182 -2.1222259998321533 
C 0.6884410977363586 0.12108471244573593 -0.8599733710289001 
H -0.8282114863395691 -1.3604310750961304 2.3243918418884277 
H 0.7217241525650024 -2.0158400535583496 1.4692505598068237 
H 1.7670679092407227 0.25695011019706726 1.6526594161987305 
H 0.3141844868659973 0.9166954755783081 2.4788830280303955 
H -1.6062214374542236 1.594335675239563 0.06074289605021477 
H -2.2100391387939453 -0.09326920658349991 0.535106897354126 
H 0.2488240897655487 1.9441850185394287 -2.303800582885742 
H 0.688304603099823 -0.8319796919822693 -2.867633819580078 
H -0.9654064774513245 -0.9000479578971863 -2.0605766773223877 
H 1.7756643295288086 0.06435073167085648 -0.8204630017280579 
