16

C -0.4177982807159424 1.6700987815856934 -1.3088687658309937 
C -0.9672858715057373 0.8420143723487854 -0.20636136829853058 
C -0.8144646286964417 -0.6973055601119995 -0.06012478470802307 
C 0.6159794926643372 -0.9488171339035034 -0.6302158832550049 
C 0.9986245632171631 -0.031118284910917282 0.5477367639541626 
C -0.1384759545326233 -0.7218348979949951 1.3631621599197388 
N 0.32871773838996887 1.296513319015503 0.3277798891067505 
H -0.003994009457528591 1.0225306749343872 -2.0940661430358887 
H 0.6271458268165588 2.0824055671691895 -0.49751660227775574 
H -1.880113959312439 1.258702039718628 0.24244347214698792 
H -1.671362042427063 -1.3150160312652588 -0.33516648411750793 
H 0.9192935824394226 -1.9971966743469238 -0.4501204192638397 
H 0.8637553453445435 -0.6702662706375122 -1.655184268951416 
H 2.039397716522217 0.10404301434755325 0.8937408924102783 
H 0.09086364507675171 -1.7463992834091187 1.6838257312774658 
H -0.5902829170227051 -0.14835333824157715 2.178936004638672 
