15

O -2.28193998336792 0.8618205785751343 0.11975988000631332 
C -1.299767017364502 0.5319907665252686 -0.817527711391449 
C 0.13099431991577148 0.7837862968444824 -0.31547078490257263 
C 1.2613956928253174 0.1603558361530304 -0.8680754899978638 
C 1.0316400527954102 -1.3825137615203857 0.8698518872261047 
C 0.3855911195278168 -0.1968969851732254 1.2111561298370361 
O -0.25690552592277527 0.31315335631370544 2.134803295135498 
H -1.9525645971298218 0.6167474389076233 1.0045623779296875 
H -1.4888660907745361 1.1317870616912842 -1.7296159267425537 
H -1.3589035272598267 -0.5355137586593628 -1.1454797983169556 
H 0.2949601113796234 1.8121358156204224 0.03752240911126137 
H 1.1854382753372192 -0.6431291699409485 -1.6102707386016846 
H 2.2773427963256836 0.5035614371299744 -0.6570906639099121 
H 1.5251188278198242 -1.9498083591461182 1.6665889024734497 
H 0.5464658737182617 -2.007476329803467 0.09928587079048157 
