12

C 2.2993528842926025 -0.011156298220157623 -0.12549255788326263 
C 1.0338298082351685 0.018475506454706192 0.7311806082725525 
C -0.029083814471960068 0.7775812745094299 0.16663691401481628 
C -3.180743455886841 -0.5827681422233582 -0.7365174293518066 
C -2.413196086883545 -0.45904049277305603 0.24531632661819458 
O 0.8011979460716248 -0.602247416973114 1.7696796655654907 
H 3.035759449005127 0.6970264315605164 0.2891165018081665 
H 2.7087390422821045 -1.0276858806610107 -0.10229618102312088 
H 2.107140064239502 0.2804298996925354 -1.1651127338409424 
H -0.41646304726600647 0.7712025046348572 -0.8271970152854919 
H -3.813979148864746 0.060742296278476715 -1.3885594606399536 
H -2.1325531005859375 0.0774402990937233 1.1432452201843262 
