13

C 0.7930169701576233 1.03312349319458 1.6336671113967896 
O 1.2982147932052612 0.5447678565979004 0.3619987368583679 
C 0.36466750502586365 -0.025626983493566513 -0.4393009841442108 
C -0.5854722857475281 0.5308529734611511 -1.2845896482467651 
N -1.3336957693099976 -0.5456303358078003 -1.773666262626648 
C -1.0142314434051514 -1.742139458656311 -1.066597580909729 
N -0.02837838977575302 -1.3329957723617554 -0.17184953391551971 
H 1.6468945741653442 1.0193296670913696 2.327345609664917 
H 0.4211842715740204 2.061915159225464 1.5315769910812378 
H -0.012983830645680428 0.42033064365386963 2.051008701324463 
H -0.99322509765625 1.5383938550949097 -1.2956082820892334 
H -0.9947975277900696 -1.5614715814590454 -2.368091344833374 
H 0.43880602717399597 -1.9408491849899292 0.49410566687583923 
