18

C 0.4682592749595642 0.34405213594436646 2.336003303527832 
C -0.007207492832094431 -0.6372478008270264 1.244654893875122 
C -1.2439987659454346 -0.21352265775203705 0.549075722694397 
N 0.8673721551895142 -0.7950629591941833 0.0995594710111618 
C 1.0803040266036987 0.27933526039123535 -0.6390283703804016 
C -0.43564096093177795 0.24822968244552612 -2.1603853702545166 
O -0.6331144571304321 -1.0118408203125 -2.6136152744293213 
H 1.4379827976226807 0.009263870306313038 2.7436752319335938 
H 0.6039429903030396 1.358155608177185 1.9439642429351807 
H -0.26266351342201233 0.38109734654426575 3.1654295921325684 
H -0.18214274942874908 -1.6251295804977417 1.6960843801498413 
H -1.906574010848999 -0.9491044878959656 0.12436849623918533 
H -1.4506630897521973 0.84883052110672 0.3930627107620239 
H 1.920544147491455 0.29640787839889526 -1.3353437185287476 
H 0.7480371594429016 1.2933508157730103 -0.3825146555900574 
H 0.2080371081829071 0.8857285976409912 -2.7910449504852295 
H -1.3574645519256592 0.8043028116226196 -1.9230388402938843 
H 0.14498955011367798 -1.5168462991714478 -2.45090651512146 
