14

C -0.3899330794811249 1.5484771728515625 -0.3518846035003662 
C -0.13566945493221283 0.13355231285095215 0.15106306970119476 
C -1.3517119884490967 -0.7733222842216492 0.3197733163833618 
O 0.8951223492622375 -0.06867662072181702 0.9049501419067383 
C 2.215397834777832 -0.9579020142555237 0.008589105680584908 
O 3.1681768894195557 -1.3010820150375366 0.5751248002052307 
H -1.1046804189682007 1.5608036518096924 -1.1849267482757568 
H -0.8105748295783997 2.1521263122558594 0.46770915389060974 
H 0.5509276390075684 2.0126068592071533 -0.6696165204048157 
H 0.3542429506778717 -0.47321707010269165 -1.2098249197006226 
H -1.0435420274734497 -1.8217390775680542 0.4133187532424927 
H -2.052473545074463 -0.6772218942642212 -0.5208516120910645 
H -1.8865383863449097 -0.4938804805278778 1.2412999868392944 
H 1.1547911167144775 -0.8179370164871216 -1.1576111316680908 
