13

N -1.3210712671279907 -1.0292667150497437 -0.8854612708091736 
C -1.173758625984192 0.17857038974761963 -0.35707101225852966 
O -2.303448438644409 0.7913033366203308 -0.5338272452354431 
C 0.05081653967499733 0.7337242364883423 0.2682115435600281 
C 0.9345483779907227 -0.16673478484153748 1.1082868576049805 
C 1.4061236381530762 0.29281121492385864 -0.2594837546348572 
H -0.7050305604934692 -1.8284989595413208 -0.6611106395721436 
H -2.4927515983581543 -0.40940165519714355 -1.1000202894210815 
H -0.05939150229096413 1.7719871997833252 0.5878872275352478 
H 0.663089394569397 -1.224338173866272 1.1954880952835083 
H 1.384783148765564 0.2913999855518341 1.9873533248901367 
H 2.1913397312164307 1.0466468334197998 -0.29843994975090027 
H 1.4247509241104126 -0.44820311665534973 -1.051813006401062 
