16

C -2.143674612045288 0.35838547348976135 0.8763220906257629 
C -1.5700181722640991 -0.40712085366249084 -0.27112409472465515 
C 1.0750824213027954 0.13199123740196228 -0.05868791788816452 
C 2.134629726409912 0.7991759777069092 -0.8679317831993103 
C 1.0171045064926147 -1.2253334522247314 0.2899225354194641 
O 0.03388499841094017 -1.8110706806182861 0.8411328792572021 
H -1.8035759925842285 1.4035224914550781 0.8907162547111511 
H -1.8878028392791748 -0.1354224979877472 1.827747106552124 
H -3.2490038871765137 0.32483869791030884 0.8056221008300781 
H -1.2986723184585571 0.13159728050231934 -1.1848890781402588 
H -1.8445028066635132 -1.4515633583068848 -0.3619215190410614 
H 0.3948827385902405 0.7688998579978943 0.499426007270813 
H 1.7367048263549805 1.665375828742981 -1.4277909994125366 
H 2.5625905990600586 0.10812436789274216 -1.6050361394882202 
H 2.9576809406280518 1.1835912466049194 -0.23724354803562164 
H 1.8846906423568726 -1.84499192237854 -0.016263805329799652 
