15

C 0.8282920122146606 -0.9351980090141296 -0.7516887784004211 
C 2.0508365631103516 -0.4268128573894501 -0.022548342123627663 
C 0.6536630988121033 -0.24905827641487122 0.5388570427894592 
N -0.1331051141023636 0.9679478406906128 0.5566253662109375 
C -1.1496089696884155 1.2073901891708374 -0.5089359879493713 
C -1.4677562713623047 0.6567277908325195 0.8284927010536194 
H 0.5625033974647522 -0.37348243594169617 -1.6639289855957031 
H -0.8694106340408325 -1.756103515625 -0.18436412513256073 
H 2.6735825538635254 -1.136939287185669 0.5218629837036133 
H 2.596829891204834 0.40510374307632446 -0.46147358417510986 
H 0.4300488531589508 -0.9146008491516113 1.3783329725265503 
H -1.324505090713501 2.275566339492798 -0.6969430446624756 
H -1.303126335144043 0.5363279581069946 -1.3596911430358887 
H -2.0405306816101074 1.07820725440979 1.6557846069335938 
H -1.5077141523361206 -1.3350756168365479 0.16961811482906342 
