14

C -2.0825979709625244 0.16415570676326752 0.3322021961212158 
C -0.668485701084137 0.3312113583087921 -0.15889891982078552 
N 0.21667350828647614 -0.8994280695915222 0.10788687318563461 
C 0.5100863575935364 0.4230819046497345 0.7362188696861267 
C 1.6457629203796387 0.7041488289833069 -0.2510848045349121 
C 1.0307420492172241 -0.4091537594795227 -1.1232407093048096 
O 1.205308437347412 -0.9565058350563049 -2.1801493167877197 
H -2.5825469493865967 1.142737865447998 0.3661700189113617 
H -2.177976608276367 -0.2931634783744812 1.3417690992355347 
H -2.6595566272735596 -0.46157488226890564 -0.3665316104888916 
H -0.07822515815496445 -1.7751734256744385 0.5501233339309692 
H 0.5349363088607788 0.48265334963798523 1.8240002393722534 
H 2.6615264415740967 0.4263400435447693 0.07826635986566544 
H 1.627325177192688 1.7000954151153564 -0.7028444409370422 
