12

C -0.8853164911270142 0.6475417613983154 0.5800292491912842 
C -0.20779579877853394 -0.700094997882843 0.8406708240509033 
C 0.1814175397157669 -1.2064716815948486 -0.4489372670650482 
O -0.40387433767318726 0.2537432014942169 -1.7867014408111572 
C 0.06377901136875153 0.9058976769447327 -0.6300134658813477 
C 1.122618556022644 -0.12767533957958221 -0.2342502325773239 
H -0.773953378200531 1.3642197847366333 1.4062119722366333 
H -1.949040174484253 0.5731446146965027 0.2940639853477478 
H -0.16626015305519104 -1.2566277980804443 1.7795464992523193 
H 0.428480863571167 -2.2587192058563232 -0.6411292552947998 
H 0.38568419218063354 1.9597342014312744 -0.7769945859909058 
H 2.2042601108551025 -0.15469218790531158 -0.38249632716178894 
