15

C 2.829813241958618 0.3623791038990021 0.11785545200109482 
C 1.570614218711853 -0.10070254653692245 0.7010084986686707 
C 0.459279328584671 -0.724382221698761 0.6436257362365723 
C -0.8799977898597717 -1.1959184408187866 0.8865007162094116 
C -2.0843374729156494 -0.4263993799686432 0.5980978608131409 
O -3.2017078399658203 -0.9175621867179871 0.8135018944740295 
C -1.912415623664856 1.0028636455535889 0.09282119572162628 
H 2.893360137939453 1.460365891456604 0.18202438950538635 
H 2.9369993209838867 0.09265296161174774 -0.9486879110336304 
H 3.6943531036376953 -0.045482732355594635 0.6624472737312317 
H -1.007613182067871 -2.2459378242492676 1.1495823860168457 
H 0.32081547379493713 -1.3277734518051147 -0.3240624964237213 
H -2.899559259414673 1.4430986642837524 -0.08234892040491104 
H -1.3661034107208252 1.6100850105285645 0.8299909830093384 
H -1.3275492191314697 1.030151605606079 -0.8387150764465332 
