15

C -0.36491551995277405 -1.390220284461975 1.0125246047973633 
C 0.27555105090141296 -0.04116739332675934 1.3151863813400269 
C 1.2001351118087769 0.666602611541748 0.3803529143333435 
N -0.02038341946899891 1.2039145231246948 0.5357863903045654 
C -1.0769940614700317 1.0585761070251465 -1.4612226486206055 
C -0.2619926631450653 0.06895823031663895 -1.9118722677230835 
N 0.8309096097946167 -0.4827452003955841 -1.9248228073120117 
H 0.2867770195007324 -2.194380044937134 1.4025412797927856 
H -0.5355086326599121 -1.5646096467971802 -0.05934672802686691 
H -1.333019495010376 -1.46329927444458 1.5288912057876587 
H 0.40901780128479004 0.16444534063339233 2.385369300842285 
H 1.369653582572937 -0.07367616891860962 -0.925102174282074 
H 2.180859088897705 1.1329644918441772 0.5142604112625122 
H -0.9040647745132446 2.0999653339385986 -1.7459990978240967 
H -2.0560245513916016 0.8146715760231018 -1.0465469360351562 
