12

N 1.7037272453308105 -0.17570069432258606 1.4061448574066162 
C 0.8175223469734192 0.2709657847881317 0.42470574378967285 
O 0.3661884665489197 1.461162805557251 0.417401522397995 
N 0.4172419011592865 -0.7344775795936584 -0.40504586696624756 
C -0.6767227649688721 -0.3169093132019043 -1.317600131034851 
C -1.585474967956543 0.13770002126693726 -0.2666747570037842 
H 2.05283784866333 0.5297719240188599 2.049104928970337 
H 2.1686699390411377 -1.0399988889694214 1.2711224555969238 
H -0.3996764123439789 0.47760769724845886 -2.0156264305114746 
H -1.053267240524292 -1.1916859149932861 -1.8665865659713745 
H -1.9350268840789795 -0.5959548354148865 0.44870370626449585 
H -1.8760194778442383 1.1775192022323608 -0.14564922451972961 
