12

N 1.1115039587020874 0.3640838861465454 -1.6520342826843262 
C 0.5366536378860474 -0.17624877393245697 -0.4928683042526245 
C 0.2842807471752167 0.6195406317710876 0.7258076071739197 
N 0.3650512993335724 -0.11152971535921097 1.8136258125305176 
C -0.8995070457458496 -1.3538144826889038 0.6894623637199402 
O -1.6638953685760498 0.08625131100416183 0.651862621307373 
N 0.14375156164169312 -1.399119257926941 -0.2678110897541046 
H 0.3975045084953308 0.5866039991378784 -2.375608205795288 
H 1.8652302026748657 -0.22058618068695068 -2.010303497314453 
H 0.3550387918949127 1.7145805358886719 0.723628580570221 
H -0.4166136085987091 -0.1803586483001709 2.4591243267059326 
H -2.078998565673828 0.07059656828641891 -0.26488563418388367 
