14

C -0.8375668525695801 -1.1046496629714966 0.10451505333185196 
C -1.3693091869354248 0.2807788550853729 -0.1496552675962448 
O -0.3655675947666168 1.1883913278579712 -0.6043022871017456 
C 0.8175756335258484 1.1262826919555664 0.19308683276176453 
C 1.2939844131469727 -0.28139930963516235 0.43590161204338074 
O 0.3576986491680145 -1.2027087211608887 0.7009484171867371 
H -1.5047597885131836 -1.9191972017288208 0.3791089951992035 
H 0.2335231900215149 -1.1231778860092163 -1.5259766578674316 
H -2.1396267414093018 0.2561444640159607 -0.9316004514694214 
H -1.8450560569763184 0.6781248450279236 0.7727951407432556 
H 0.6408420205116272 1.6360669136047363 1.1644138097763062 
H 1.5815457105636597 1.6995545625686646 -0.3473632335662842 
H 2.2250571250915527 -0.47833821177482605 0.9623928666114807 
H 0.977420449256897 -0.8359617590904236 -1.4171487092971802 
