13

C -1.1987627744674683 -0.8034231662750244 -0.49503177404403687 
C 0.003632107051089406 0.12027954310178757 -0.6122516989707947 
C 0.26557856798171997 1.1645480394363403 0.4879704713821411 
O 1.650770902633667 0.9220832586288452 0.7863940000534058 
C 1.7180753946304321 -0.461481511592865 0.5919333100318909 
H -2.1374711990356445 -0.2256886065006256 -0.5393169522285461 
H -1.180494785308838 -1.3362339735031128 0.4710204005241394 
H -1.2187849283218384 -1.5489953756332397 -1.3030312061309814 
H 0.16538666188716888 0.5107914209365845 -1.6222249269485474 
H -0.3661068081855774 0.968582808971405 1.3708044290542603 
H 0.1154516264796257 2.2099759578704834 0.18209555745124817 
H 1.1652439832687378 -0.5507746934890747 -0.5966159701347351 
H 1.0174809694290161 -0.9696637392044067 1.2782543897628784 
