13

O 2.611807346343994 -0.5914661884307861 -0.5684031248092651 
N 1.784171462059021 0.5163587331771851 -0.20766127109527588 
C 0.612082839012146 0.07210191339254379 0.1419338434934616 
C 0.1615193486213684 -1.294411540031433 0.2921305000782013 
C -1.7093547582626343 0.08341721445322037 0.013309613801538944 
C -0.5480956435203552 0.9781759977340698 0.4912729859352112 
H 3.406784772872925 -0.13683100044727325 -0.9054482579231262 
H 0.3067902624607086 -1.910256266593933 -0.6162311434745789 
H -1.3191113471984863 -1.0067294836044312 0.3311924934387207 
H -1.8676806688308716 0.10817434638738632 -1.06898832321167 
H -2.655961751937866 0.15987642109394073 0.5636979937553406 
H -0.5042028427124023 1.9593110084533691 0.005343950819224119 
H -0.6132082939147949 1.129836916923523 1.5782997608184814 
