12

N -0.616629421710968 -1.5245931148529053 -0.35965728759765625 
C 0.010813640430569649 -0.4544047713279724 -1.0084847211837769 
C -1.0386651754379272 0.12997211515903473 -0.0987645760178566 
C 0.09756147861480713 0.8448435664176941 0.729998767375946 
N 1.0989114046096802 -0.09446459263563156 1.2061492204666138 
C 1.1517921686172485 0.3261432349681854 -0.18100185692310333 
H -1.3752485513687134 -0.956420361995697 0.45348671078681946 
H -0.06931856274604797 -0.34127503633499146 -2.093977928161621 
H -1.9438252449035645 0.551628828048706 -0.5318880081176758 
H -0.045781996101140976 1.7984323501586914 1.2341036796569824 
H 0.6999189853668213 -1.0505622625350952 1.242779016494751 
H 2.045429229736328 0.8001970052719116 -0.5819848775863647 
