17

C -0.20362254977226257 1.8243401050567627 -0.5004861950874329 
C -0.14951108396053314 0.3055097460746765 -0.49585843086242676 
C 1.2346909046173096 -0.3681187033653259 -0.263150691986084 
C 0.8238433003425598 -0.6997349858283997 1.2075248956680298 
C -0.6627846360206604 -0.44623515009880066 0.8042149543762207 
C -1.3878804445266724 -1.5100566148757935 0.04390091076493263 
O -0.9019461274147034 -0.21005049347877502 -1.6215097904205322 
H -1.2456989288330078 2.168463945388794 -0.40179869532585144 
H 0.19531086087226868 2.2117996215820312 -1.4497876167297363 
H 0.3777628540992737 2.2529137134552 0.32503071427345276 
H 1.354584813117981 -1.2788422107696533 -0.8644428849220276 
H 2.129866361618042 0.25727909803390503 -0.3881476819515228 
H 1.1976202726364136 0.07376465201377869 1.9070552587509155 
H 1.077653408050537 -1.6987082958221436 1.5806595087051392 
H -1.2985373735427856 0.05225984752178192 1.549135684967041 
H -0.7553579211235046 -2.3597402572631836 -0.2354464828968048 
H -1.7859938144683838 -0.5748445987701416 -1.1968927383422852 
