16

C 1.6537164449691772 1.7250370979309082 0.9129404425621033 
O 0.4087080955505371 1.3037949800491333 0.37459665536880493 
C 0.06112488731741905 -0.0013206731528043747 0.7847313284873962 
C -1.2734719514846802 -0.36951541900634766 0.24104057252407074 
C -0.6710507869720459 -0.5880998969078064 -2.077503204345703 
C -1.6964541673660278 -1.6910828351974487 0.472513347864151 
N -2.1798386573791504 -2.7500576972961426 0.6887638568878174 
H 1.8490231037139893 2.723684549331665 0.5062699913978577 
H 2.4778473377227783 1.0479902029037476 0.6215522885322571 
H 1.6240336894989014 1.7839770317077637 2.015876293182373 
H -0.09322958439588547 -0.0637761577963829 1.8882741928100586 
H 0.8832791447639465 -0.7130483984947205 0.5576647520065308 
H -1.2778890132904053 -0.13350532948970795 -1.1055505275726318 
H -1.4764634370803833 -1.0247479677200317 -2.6755194664001465 
H -0.237754687666893 0.3220420181751251 -2.5021331310272217 
H 0.08484557271003723 -1.3237465620040894 -1.8000413179397583 
