12

N 0.038957953453063965 0.46698445081710815 1.7978098392486572 
C -0.6962395310401917 0.6302123665809631 0.5993424654006958 
O -1.766389012336731 1.2096645832061768 0.4989813566207886 
C 0.3766268193721771 0.5533505082130432 -0.8354713916778564 
C 0.7410303950309753 -0.8882723450660706 -0.8806664347648621 
N -0.591856837272644 -0.7434353232383728 -0.2627202570438385 
H 0.8517155051231384 -0.1314266324043274 1.69679856300354 
H 0.23981420695781708 1.3846691846847534 2.1939051151275635 
H -0.07488519698381424 0.9257863163948059 -1.7722046375274658 
H 1.5247408151626587 -1.2519524097442627 -0.21366910636425018 
H 0.7142631411552429 -1.387732744216919 -1.8546335697174072 
H -1.3577784299850464 -0.7678481936454773 -0.967471718788147 
