19

C -1.7419103384017944 -0.8807604312896729 2.3914480209350586 
C -0.6909420490264893 0.018614651635289192 1.7478245496749878 
O -0.5269991159439087 -0.34948280453681946 0.3799004554748535 
C 0.37998759746551514 0.485725998878479 -0.3590138852596283 
C 1.7643990516662598 0.46804317831993103 0.08872472494840622 
C 0.663971483707428 -0.14584888517856598 -1.7329052686691284 
C 0.5557321906089783 0.4844399094581604 -3.021418809890747 
H -1.909610629081726 -0.5915711522102356 3.434405565261841 
H -2.6995201110839844 -0.808144211769104 1.8533519506454468 
H -1.4321446418762207 -1.9336161613464355 2.348297357559204 
H 0.2850354015827179 -0.09478689730167389 2.2679710388183594 
H -0.9831831455230713 1.0849064588546753 1.8275542259216309 
H -0.06694474071264267 1.4919052124023438 -0.4775327742099762 
H 2.4853765964508057 1.115891456604004 -0.4058201313018799 
H 2.1096913814544678 -0.41719990968704224 0.6253893375396729 
H 1.1470614671707153 -1.1253427267074585 -1.6538528203964233 
H 0.9653466939926147 0.051266446709632874 -3.9400243759155273 
H -0.38442566990852356 -0.32225432991981506 -2.303034543991089 
H 0.07907912880182266 1.4682143926620483 -3.0712645053863525 
