15

O 2.4553322792053223 -0.7840023636817932 -0.09599610418081284 
C 1.3524068593978882 0.01762211136519909 -0.09725584089756012 
C 0.41823703050613403 0.19048263132572174 1.1065698862075806 
C -0.7389923334121704 -0.20963875949382782 0.12436378002166748 
O -1.1037973165512085 -1.558971643447876 0.36714789271354675 
C -1.7647385597229004 0.6767186522483826 -0.3027997612953186 
C 0.2830072045326233 0.1467459499835968 -1.0444906949996948 
H 3.0664472579956055 -0.4026506841182709 0.57611483335495 
H 1.1288057565689087 1.10197913646698 -0.9037294387817383 
H 0.6087209582328796 -0.601231575012207 1.8434351682662964 
H 0.36866897344589233 1.1764917373657227 1.5959128141403198 
H -2.0267703533172607 -1.683288812637329 0.08955923467874527 
H -2.4613547325134277 0.33027201890945435 -1.0750999450683594 
H -1.6901689767837524 1.7476270198822021 -0.1101737692952156 
H 0.10419532656669617 -0.1481555849313736 -2.0735576152801514 
