17

C -0.42122799158096313 1.8037062883377075 1.320027232170105 
C -0.5216079950332642 0.3745388090610504 0.7844414710998535 
O -1.6364375352859497 0.23655956983566284 -0.12602537870407104 
C -0.9159828424453735 -0.08997993916273117 -1.3076164722442627 
C -0.13506339490413666 -1.3242872953414917 -1.2867331504821777 
C 1.3301925659179688 -1.311867117881775 0.0822102501988411 
C 0.6588506102561951 -0.03296886757016182 -0.10114706307649612 
H -1.2944823503494263 2.0139846801757812 1.9626179933547974 
H -0.41666242480278015 2.510023832321167 0.4858471751213074 
H 0.5059205889701843 1.924500823020935 1.9062395095825195 
H -0.5983065366744995 -0.34613242745399475 1.616073489189148 
H -0.8529776930809021 0.6829392313957214 -2.0793251991271973 
H 0.4836893677711487 -1.4786784648895264 -2.1817872524261475 
H -0.6349412798881531 -2.202976942062378 -0.8661197423934937 
H 2.265292167663574 -1.5006914138793945 -0.42934200167655945 
H 0.9793625473976135 -2.0233943462371826 0.8275722861289978 
H 1.2043818235397339 0.7647241353988647 -0.6069332361221313 
