17

C -1.2956783771514893 -1.3439278602600098 -0.35682010650634766 
C -0.5350582003593445 -0.784160852432251 0.8411611318588257 
C 0.8954657912254333 -0.3714938759803772 0.7001386284828186 
C 1.537627935409546 -0.10058879107236862 -0.5441465973854065 
C -0.6071719527244568 0.7080546021461487 1.1122026443481445 
C -0.6948214769363403 1.620063304901123 0.06559999287128448 
C -0.022040240466594696 1.9523195028305054 -0.9838533401489258 
H -1.1893491744995117 -0.706804096698761 -1.247198462486267 
H -2.3750147819519043 -1.3954458236694336 -0.12356385588645935 
H -0.9535837769508362 -2.360250473022461 -0.5759764313697815 
H -0.7050422430038452 -1.3721271753311157 1.7505066394805908 
H 1.5002351999282837 -0.3434585630893707 1.6046810150146484 
H 1.0494691133499146 1.1394445896148682 -0.9473317265510559 
H 2.615511894226074 0.09356475621461868 -0.5378850698471069 
H 1.2150620222091675 -0.674952507019043 -1.4225947856903076 
H -0.574153482913971 1.0356281995773315 2.1509273052215576 
H 0.13854151964187622 2.9041342735290527 -1.485846996307373 
