11

O 0.18748152256011963 0.544167697429657 -2.7310752868652344 
C -0.10977329313755035 0.2236776202917099 -1.5566811561584473 
N -0.44231995940208435 -1.0244135856628418 -1.2253283262252808 
C 0.46227288246154785 -0.5861676931381226 0.819442868232727 
C -0.3967822194099426 0.675967276096344 0.7115449905395508 
O -0.22509630024433136 1.2231080532073975 -0.6172747611999512 
H 0.3159411549568176 -1.315772533416748 -0.17440171539783478 
H 0.18615366518497467 -1.2490334510803223 1.649200677871704 
H 1.5367661714553833 -0.36124783754348755 0.786212682723999 
H -0.0656970739364624 1.4292621612548828 1.4421252012252808 
H -1.448946475982666 0.44045209884643555 0.8962342739105225 
