12

N 3.2757418155670166 -0.1257392317056656 -0.0645185187458992 
C 2.098801612854004 -0.09761332720518112 -0.058312464505434036 
C 0.6906404495239258 -0.09112345427274704 0.028238914906978607 
C -0.3584693670272827 1.0446126461029053 0.15949192643165588 
C -1.2939878702163696 -0.06874216347932816 -0.31105560064315796 
N -0.20746241509914398 -0.7130487561225891 -0.8658438920974731 
H -0.1692231148481369 -0.7607071995735168 1.3422771692276 
H -0.536670982837677 1.5002464056015015 1.1358083486557007 
H -0.23321320116519928 1.7945643663406372 -0.6314518451690674 
H -2.2915730476379395 -0.046321094036102295 -0.7492823600769043 
H -1.0679912567138672 -0.73540860414505 1.1333211660385132 
H -0.17893558740615845 -1.667028546333313 -1.227024793624878 
