15

C -1.1032356023788452 -1.150606632232666 -0.0919896736741066 
C -0.34070464968681335 0.18502719700336456 -0.1795986145734787 
C -0.5567100644111633 0.9368205666542053 -1.3666884899139404 
N -0.45175182819366455 0.9319489002227783 1.4214837551116943 
C 1.0781723260879517 0.05601023882627487 0.28932011127471924 
O 1.1393157243728638 0.26667121052742004 1.5549449920654297 
N 2.0730555057525635 -0.15778103470802307 -0.5492408275604248 
H -2.182490587234497 -0.9525249004364014 -0.12443169951438904 
H -0.8486369252204895 -1.783605694770813 -0.9525405764579773 
H -0.8783165812492371 -1.709153413772583 0.8268230557441711 
H -0.0935681164264679 1.9213073253631592 -1.452441692352295 
H -1.5149779319763184 0.8210944533348083 -1.8751541376113892 
H -1.0054724216461182 0.2747812867164612 2.0220038890838623 
H 1.7514674663543701 -0.07375378161668777 -1.5292378664016724 
H 3.0510447025299072 -0.05758160725235939 -0.2958444356918335 
