10

O -1.0614417791366577 -0.0865568071603775 -1.6391726732254028 
C -0.16946528851985931 -0.16296039521694183 -0.8238201141357422 
C -0.6073278784751892 -0.5715291500091553 0.7757361531257629 
N -0.19520442187786102 0.6623488664627075 1.2081665992736816 
C 1.1683573722839355 0.25647586584091187 -0.7655985355377197 
H -0.021309416741132736 -1.4319097995758057 1.1252453327178955 
H -1.6816246509552002 -0.7944105267524719 0.7434270977973938 
H -0.8795761466026306 1.3530436754226685 0.8733816742897034 
H 1.8173725605010986 -0.0992254763841629 0.034253135323524475 
H 1.6302196979522705 0.8747237324714661 -1.5316187143325806 
