12

N 2.4390721321105957 -1.4266635179519653 0.706566333770752 
C 1.8045904636383057 -0.5537862777709961 0.2267039269208908 
C 1.0944958925247192 0.5202569365501404 -0.33699482679367065 
C -1.2498834133148193 -0.9988441467285156 -0.08879194408655167 
N -1.5895771980285645 -0.05431238189339638 0.8264638781547546 
C -0.9010270237922668 0.7843972444534302 -0.013193963095545769 
N 0.2989218831062317 1.4108473062515259 0.4536009430885315 
H 1.2835487127304077 0.8248482346534729 -1.3631110191345215 
H -1.5692721605300903 -0.9940106272697449 -1.143883466720581 
H -0.7452315092086792 -1.910811424255371 0.25097760558128357 
H -1.2737629413604736 1.1695390939712524 -0.9706332087516785 
H 0.4043721556663513 1.236087679862976 1.4566926956176758 
