11

N 0.46317562460899353 -1.3251266479492188 -1.1767833232879639 
C 0.2161412388086319 -0.30539458990097046 -0.2208552211523056 
C 0.6714957356452942 1.0744431018829346 -0.2861868441104889 
N -0.16630254685878754 1.644731044769287 0.6797254085540771 
N -1.1630297899246216 0.8576645851135254 1.1873582601547241 
C -1.0479308366775513 -0.28329920768737793 0.5636324882507324 
H 0.8407925963401794 -2.1777472496032715 -0.7732004523277283 
H 1.0473500490188599 -0.9973593354225159 -1.9232375621795654 
H 1.17425537109375 0.006409591529518366 0.4924001693725586 
H -0.36799582839012146 2.6542325019836426 0.6363222599029541 
H -1.6679519414901733 -1.148553490638733 0.8208249807357788 
