17

O -2.1067044734954834 0.9389051198959351 0.5026005506515503 
C -1.470595121383667 -0.10901769995689392 -0.2525407373905182 
C -0.37041565775871277 0.5237026214599609 -1.1639125347137451 
C 0.8276961445808411 0.9837170243263245 -0.318916916847229 
C 1.4710596799850464 -0.2405412793159485 0.37178662419319153 
C 0.4062938988208771 -1.1457806825637817 0.976586639881134 
C -0.989641010761261 -1.1747266054153442 0.6939539313316345 
H -1.6270334720611572 0.9540613293647766 1.3574692010879517 
H -2.260080575942993 -0.5161093473434448 -0.9084175229072571 
H -0.8164937496185303 1.361078143119812 -1.7163118124008179 
H -0.03640135005116463 -0.21539358794689178 -1.9095101356506348 
H 0.4917624592781067 1.702401041984558 0.443067729473114 
H 1.5713883638381958 1.5016096830368042 -0.948932945728302 
H 2.1759560108184814 0.07373378425836563 1.1579147577285767 
H 2.064622402191162 -0.8213839530944824 -0.3628559112548828 
H 0.7315423488616943 -1.7592637538909912 1.8289451599121094 
H -0.06295595318078995 -2.0569913387298584 0.24907417595386505 
