16

C -1.0832576751708984 1.5174641609191895 0.009224084205925465 
C -0.19887372851371765 0.42483001947402954 0.3667009174823761 
C -0.8760951161384583 -0.9906778931617737 0.36045533418655396 
O -0.39326342940330505 -1.9585670232772827 1.1301757097244263 
N 1.0864057540893555 0.4534769654273987 -0.3653412461280823 
C 2.1208279132843018 -0.3778609335422516 -0.13674290478229523 
O 2.1033458709716797 -1.3809775114059448 0.5998960733413696 
H -1.0238757133483887 2.019652843475342 -0.9535001516342163 
H -1.8108670711517334 1.8678433895111084 0.7338637113571167 
H -1.6630361080169678 0.13682158291339874 -1.5817173719406128 
H 0.009811490774154663 0.513533353805542 1.4503804445266724 
H -1.9711190462112427 -0.9672699570655823 0.3727288842201233 
H -1.347588300704956 -0.5782517790794373 -1.547821044921875 
H 0.6215707659721375 -1.8744561672210693 1.0762357711791992 
H 1.2570825815200806 1.2941269874572754 -0.9113547801971436 
H 3.0417330265045166 -0.09166227281093597 -0.6787905097007751 
