13

C 2.1699607372283936 -0.16208796203136444 -0.20011670887470245 
C 0.7966412901878357 -0.6269531846046448 -0.36881619691848755 
N 0.015472275204956532 -1.271873116493225 -1.067587971687317 
C -1.0300980806350708 -0.20813539624214172 -0.8638730049133301 
C -1.2735577821731567 0.3319514989852905 0.41285714507102966 
O -2.5253729820251465 0.8279102444648743 0.7205445766448975 
N -0.3044309914112091 0.3716748356819153 1.3067201375961304 
H 2.8576512336730957 -0.7345981001853943 -0.8407670259475708 
H 2.462343454360962 -0.20298035442829132 0.8544440269470215 
H 2.1909141540527344 0.8934083580970764 -0.5074242353439331 
H -1.5227067470550537 0.090592160820961 -1.7869166135787964 
H -3.1676619052886963 0.42533329129219055 0.10469769686460495 
H -0.6758773922920227 0.281583696603775 2.2656991481781006 
