12

O 2.0114810466766357 0.9183536767959595 1.0448384284973145 
C 0.938544511795044 0.3253851532936096 0.6177308559417725 
N 0.689054012298584 -0.942701518535614 0.3003820478916168 
C -0.5795857906341553 -1.0200062990188599 -0.5033300518989563 
C -1.0511608123779297 0.43538525700569153 -0.4995817542076111 
O -1.3852320909500122 0.9360955357551575 0.7585726380348206 
C -0.06240088492631912 1.3007348775863647 0.24017195403575897 
H 1.443050742149353 -1.6083202362060547 0.18643559515476227 
H -1.2943201065063477 -1.695851445198059 -0.000636835175100714 
H -0.40896177291870117 -1.384278655052185 -1.516566276550293 
H -1.6545048952102661 0.7916648983955383 -1.3393242359161377 
H 1.3540363311767578 1.9435389041900635 0.7113077640533447 
