15

C 0.9192352890968323 -1.5177326202392578 2.028599500656128 
N 0.7078562378883362 -0.6050717234611511 0.8907232880592346 
C 0.19579215347766876 0.6350844502449036 1.0205740928649902 
N -0.47860538959503174 1.2511355876922607 0.06385314464569092 
C -0.4690960943698883 0.5653937458992004 -1.155313491821289 
C -1.0014344453811646 1.3050663471221924 -2.3757522106170654 
C -0.15522189438343048 -0.7284143567085266 -1.198143720626831 
H 1.8241510391235352 -2.1075072288513184 1.8360638618469238 
H 0.0674554780125618 -2.2080130577087402 2.1274898052215576 
H 1.0495895147323608 -0.9660086631774902 2.9572479724884033 
H 0.28499582409858704 1.1368892192840576 1.9863742589950562 
H -2.0588414669036865 1.0439221858978271 -2.5292136669158936 
H -0.9111780524253845 2.3757824897766113 -2.2290542125701904 
H -0.4368155598640442 1.0137625932693481 -3.2700326442718506 
H 0.46211713552474976 -1.194288969039917 -0.15341594815254211 
