16

C 0.014796167612075806 0.1635664999485016 2.0622823238372803 
C -0.430752694606781 0.03035293146967888 0.6395087838172913 
C 0.3820471167564392 -0.17659881711006165 -0.4937753975391388 
C 1.8586610555648804 0.0943043977022171 -0.6088094711303711 
C -0.48297572135925293 -0.5745369791984558 -1.5286579132080078 
C -1.7862575054168701 -0.20416083931922913 -1.1389691829681396 
N -1.7589831352233887 0.09756821393966675 0.31224605441093445 
H 0.5648710131645203 1.1041815280914307 2.2213780879974365 
H -0.851930558681488 0.15009327232837677 2.737168073654175 
H 0.6895427107810974 -0.6646944284439087 2.340059280395508 
H 2.365192413330078 -0.7173960208892822 -1.151930570602417 
H 2.342984199523926 0.17335021495819092 0.36990073323249817 
H 2.0648374557495117 1.032059907913208 -1.1483452320098877 
H -0.190731480717659 -0.8590021133422852 -2.537384271621704 
H -2.7424488067626953 -0.5838998556137085 -1.5179859399795532 
H -2.0388526916503906 0.9348121285438538 -0.5566863417625427 
