8

O 0.09084746241569519 1.3350224494934082 -0.6853950619697571 
C -0.5810277462005615 0.3083464503288269 -0.2017933577299118 
C -1.9007381200790405 0.1401946097612381 -0.4588957726955414 
N -3.002213716506958 -0.30054032802581787 -0.27904441952705383 
C 2.4564549922943115 -1.4041389226913452 1.1510272026062012 
N 1.6190768480300903 -0.6882379651069641 0.6814103126525879 
H 1.0416545867919922 1.1296874284744263 -0.6440558433532715 
H 0.2759457528591156 -0.5203337073326111 0.4367470145225525 
