19

C 2.193063259124756 -0.16872571408748627 0.3233588635921478 
C 0.7386347651481628 -0.6494470834732056 0.4436586797237396 
O 0.25805601477622986 -0.5882200598716736 1.7867151498794556 
C -0.13079997897148132 0.08442486077547073 -0.5829222202301025 
C -0.3497356176376343 1.5577267408370972 -0.39788374304771423 
C -1.7576055526733398 1.0592036247253418 -0.27741923928260803 
C -1.6890151500701904 -0.9049321413040161 -0.6494789123535156 
H 2.8215994834899902 -0.6682904362678528 1.0702648162841797 
H 2.593928575515747 -0.37234798073768616 -0.6779660582542419 
H 2.2581074237823486 0.9150230288505554 0.5112239122390747 
H 0.6999178528785706 -1.727786660194397 0.2470262199640274 
H -0.13900414109230042 0.27030304074287415 1.934363842010498 
H 0.1288532018661499 -0.14378240704536438 -1.6194196939468384 
H -0.11798658221960068 2.1468958854675293 -1.292981505393982 
H 0.13739131391048431 1.964438557624817 0.5024160742759705 
H -1.9395147562026978 0.93683922290802 0.8053442239761353 
H -2.246860980987549 -1.1351852416992188 0.2684987783432007 
H -2.356882333755493 -0.7615751028060913 -1.5143650770187378 
H -1.1021475791931152 -1.814562201499939 -0.8804340958595276 
