9

N -0.765377402305603 0.7333621978759766 0.07204276323318481 
C 0.5665050148963928 1.0369398593902588 0.3633376657962799 
C 1.10787832736969 -0.30853667855262756 0.2071669101715088 
N 0.14630596339702606 -1.3081412315368652 -0.04613756388425827 
C -0.9645797610282898 -0.6202503442764282 -0.10362248122692108 
H -1.4970093965530396 1.4354627132415771 0.008385853841900826 
H 1.2743948698043823 0.5511683225631714 -0.7101876735687256 
H 2.1254804134368896 -0.595747709274292 0.4640316069126129 
H -1.952298879623413 -1.0470621585845947 -0.2755330204963684 
