18

C -1.6109403371810913 -0.47171103954315186 -0.2430417388677597 
C -0.23216675221920013 -0.9023889899253845 0.09886021912097931 
C 0.4623239040374756 -1.6772524118423462 -1.0395450592041016 
C 0.5885417461395264 0.3665853440761566 0.5421342253684998 
C -0.060666773468256 1.30049467086792 1.555505394935608 
C 0.7833911776542664 1.384077787399292 -0.8965768218040466 
N 1.868445634841919 1.9147396087646484 -1.0417633056640625 
H -0.1538403481245041 1.2701953649520874 -1.4517263174057007 
H -2.335222005844116 -0.37909457087516785 0.5581061840057373 
H -1.9329631328582764 -0.4456622004508972 -1.2730036973953247 
H -0.21811962127685547 -1.5182840824127197 1.018330454826355 
H -0.1327572762966156 -2.5633718967437744 -1.2989906072616577 
H 1.4690011739730835 -1.9982414245605469 -0.7437283992767334 
H 0.5548316836357117 -1.0550211668014526 -1.9483448266983032 
H 1.6141867637634277 0.13265171647071838 0.7589868307113647 
H 0.6238741874694824 2.130067825317383 1.7843151092529297 
H -0.981221616268158 1.7436610460281372 1.1339361667633057 
H -0.3066982924938202 0.7685546278953552 2.486546277999878 
