14

C 1.3032883405685425 -0.10590864717960358 0.10480526834726334 
C 0.127065047621727 0.6488019227981567 -0.5642566084861755 
C -0.6981801390647888 1.0264180898666382 0.6623864769935608 
C 0.46024757623672485 -0.8905133605003357 1.1121833324432373 
O -1.0769307613372803 -0.8002676963806152 0.5203303694725037 
C -0.8289607167243958 -0.4972709119319916 -0.9036612510681152 
H 1.9799771308898926 0.5878994464874268 0.6296184659004211 
H 1.875946044921875 -0.687938392162323 -0.6374208927154541 
H 0.33812522888183594 1.4115288257598877 -1.3288005590438843 
H -1.706274390220642 1.4183531999588013 0.47747498750686646 
H -0.19063518941402435 1.4291765689849854 1.548431396484375 
H 0.6403297185897827 -1.9803245067596436 1.1352465152740479 
H -1.789175271987915 -0.17310640215873718 -1.3457717895507812 
H -0.43482255935668945 -1.3868485689163208 -1.410565733909607 
