16

C 1.35869562625885 1.3131226301193237 0.39589130878448486 
C 0.6034165024757385 0.030157940462231636 0.10904449224472046 
C -0.5267135500907898 -0.37155765295028687 1.1489943265914917 
C -1.5931233167648315 -0.4635976552963257 0.015886003151535988 
C -0.5568308234214783 0.01550129521638155 -0.9906953573226929 
C 1.3667155504226685 -1.1791191101074219 -0.33279237151145935 
N 0.6747195720672607 -1.6302918195724487 -1.3098032474517822 
H 2.029654026031494 1.563315987586975 -0.4387449026107788 
H 1.9587434530258179 1.2349191904067993 1.3128483295440674 
H 0.6403478980064392 2.139472723007202 0.514231264591217 
H -0.718176543712616 0.44581982493400574 1.8554737567901611 
H -0.336487352848053 -1.2935746908187866 1.7086280584335327 
H -1.9629229307174683 -1.4825221300125122 -0.17470736801624298 
H -2.473536252975464 0.18486227095127106 0.1450006663799286 
H 0.35287314653396606 -1.3274551630020142 -2.2365667819976807 
H -0.7871519327163696 0.8223924040794373 -1.7031930685043335 
