13

N 2.30511212348938 -0.24638184905052185 0.16130320727825165 
C 1.0807570219039917 0.11940217763185501 -0.1606966108083725 
O 1.1904311180114746 1.12551748752594 -0.9844786524772644 
C -0.2078891396522522 -0.42946484684944153 0.29889151453971863 
C -1.424677848815918 -0.3457373380661011 -0.611939013004303 
C -1.3429646492004395 0.549919068813324 0.5814419984817505 
H 2.530338764190674 -1.0483685731887817 0.7520722150802612 
H 2.4367380142211914 0.7725284099578857 -0.6998920440673828 
H -0.13712044060230255 -1.3009294271469116 0.9484407901763916 
H -1.269349455833435 0.09940365701913834 -1.592520833015442 
H -2.111490488052368 -1.1908375024795532 -0.5834598541259766 
H -1.9673192501068115 0.337210476398468 1.4482474327087402 
H -1.121161699295044 1.6012674570083618 0.4102557301521301 
