11

C -1.7390506267547607 0.07580200582742691 0.17161810398101807 
C -0.33438166975975037 -0.5333554148674011 -0.014513484202325344 
C 0.699203610420227 0.42567992210388184 -0.23637831211090088 
C 2.118415594100952 0.079951211810112 0.03603768348693848 
N 2.342916488647461 -1.1147212982177734 -0.24976080656051636 
O -0.1773015707731247 -1.7534337043762207 0.14741210639476776 
H -2.065223217010498 -0.11928848922252655 1.2013537883758545 
H -1.7842609882354736 1.1535371541976929 -0.02069355919957161 
H -2.430884599685669 -0.4430071711540222 -0.5047987699508667 
H 0.5107716917991638 1.3584073781967163 -0.7720664739608765 
H 2.8728365898132324 0.8565934300422668 0.2436746507883072 
