13

N 2.6053993701934814 -1.3720271587371826 1.0065383911132812 
C 1.9112505912780762 -0.45806026458740234 0.7030010223388672 
C 1.1481856107711792 0.6773238778114319 0.41900479793548584 
C 0.4336782991886139 0.6993444561958313 -0.943977952003479 
C -0.9785886406898499 0.38002341985702515 -0.48652568459510803 
C -1.1845351457595825 -0.8505176901817322 0.31823477149009705 
N -1.0004644393920898 0.4162597060203552 1.0321699380874634 
H 0.10053716599941254 0.8069486618041992 1.282694697380066 
H 0.8041307330131531 -0.029468553140759468 -1.6780697107315063 
H 0.4990949034690857 1.7059396505355835 -1.3832871913909912 
H -1.8391004800796509 0.8348846435546875 -0.9810678362846375 
H -0.42522522807121277 -1.6315778493881226 0.39802396297454834 
H -2.2136318683624268 -1.2152419090270996 0.3898538649082184 
