13

C -1.346457600593567 -0.41405829787254333 -0.9717763662338257 
C -0.3634592294692993 -0.9866827130317688 -0.10546091943979263 
O 1.670433521270752 -0.9292217493057251 0.2002750039100647 
C 0.7022452354431152 -0.22046096622943878 0.7686468958854675 
C 0.7036726474761963 1.3009353876113892 0.5351534485816956 
H -0.010126886889338493 -0.9468808770179749 -1.2791303396224976 
H -2.1501173973083496 -1.0221450328826904 -1.403704285621643 
H -1.3701919317245483 0.6654164791107178 -1.146701693534851 
H -0.4550861120223999 -2.051936626434326 0.11052144318819046 
H 0.44728028774261475 -0.44144028425216675 1.8321890830993652 
H 1.4847184419631958 1.7424938678741455 1.170098066329956 
H -0.26053065061569214 1.7572851181030273 0.794549822807312 
H 0.9476199150085449 1.5466954708099365 -0.5046598315238953 
