17

C 2.253291130065918 -0.16435877978801727 -0.4090597927570343 
O 1.427857756614685 -0.6121712327003479 0.6556468605995178 
C -0.738140881061554 0.03408898785710335 0.3445151448249817 
C -0.7067584991455078 1.0692470073699951 -0.715122401714325 
C -1.7039035558700562 0.17448635399341583 1.4629244804382324 
C 0.045718204230070114 -1.2143850326538086 0.19250628352165222 
O -0.07579589635133743 -1.6559311151504517 -1.016845464706421 
H 1.9178341627120972 -0.5991940498352051 -1.3625825643539429 
H 3.280508518218994 -0.5022888779640198 -0.20064449310302734 
H 2.2611052989959717 0.938086748123169 -0.4825887382030487 
H -0.06565329432487488 0.7762811779975891 -1.5481212139129639 
H -0.38086259365081787 2.0275847911834717 -0.2750564515590668 
H -1.7271857261657715 1.2459502220153809 -1.095258355140686 
H -2.0983781814575195 1.1913622617721558 1.5805625915527344 
H -2.5541958808898926 -0.5012887120246887 1.2573765516281128 
H -1.255083680152893 -0.18236471712589264 2.402078628540039 
H -0.12181395292282104 -1.919783115386963 1.0384268760681152 
