15

C -1.236242413520813 0.2055158019065857 -1.657879114151001 
C -0.8604398369789124 -0.18134404718875885 -0.255320280790329 
N 0.34260809421539307 -0.8628048300743103 0.012786615639925003 
C 0.4787832796573639 -0.9790171980857849 1.4185739755630493 
C 0.9729880094528198 0.33543577790260315 1.6867492198944092 
N 1.9943857192993164 0.5629787445068359 0.6456107497215271 
C 1.4819937944412231 -0.05071476846933365 -0.36332523822784424 
H -0.8124386072158813 -0.47270283102989197 -2.411659002304077 
H -2.3265581130981445 0.24424652755260468 -1.78166925907135 
H -0.8544676303863525 1.2174034118652344 -1.8827199935913086 
H -0.07198918610811234 0.9650556445121765 0.9351550340652466 
H -1.6639378070831299 -0.42943498492240906 0.4549289643764496 
H -0.36853688955307007 -1.3874778747558594 1.964829444885254 
H 1.2246886491775513 0.7602811455726624 2.65716290473938 
H 1.6991623640060425 0.07257943600416183 -1.4232237339019775 
