10

O -1.5527417659759521 0.019652556627988815 -1.760375738143921 
C -1.042370080947876 -0.36438122391700745 -0.5632001161575317 
C -1.1874265670776367 -0.7851858735084534 0.6150217652320862 
N 1.2474839687347412 -0.21241705119609833 1.5426197052001953 
N 1.4613151550292969 0.33937686681747437 0.42132997512817383 
C 0.8556550145149231 0.9001060724258423 -0.49070119857788086 
H -1.2833821773529053 -0.6831810474395752 -2.387181520462036 
H -0.9909074902534485 -1.4792816638946533 1.4278616905212402 
H 1.474656581878662 0.47238689661026 2.284107208251953 
H 1.017716884613037 1.7929246425628662 -1.0894815921783447 
