16

C -0.09133995324373245 -1.7128486633300781 -0.40215882658958435 
C -0.3796845078468323 -0.3251643180847168 -0.9722245931625366 
O -1.5734186172485352 -0.3035043478012085 -1.777807593345642 
C -0.4988245666027069 0.7457371950149536 0.10795988142490387 
N 0.341676265001297 1.767101764678955 0.27572453022003174 
C 1.620597243309021 1.437889575958252 1.4152051210403442 
O 2.622116804122925 2.045863628387451 1.3451597690582275 
H 0.8796282410621643 -1.722456455230713 0.12739256024360657 
H -0.026807261630892754 -2.460869312286377 -1.2020807266235352 
H -0.8893768787384033 -2.0181736946105957 0.2852931022644043 
H 0.4063775837421417 -0.00684235617518425 -1.669528603553772 
H -2.318096160888672 -0.5133841633796692 -1.1826108694076538 
H -0.070990189909935 -0.08692118525505066 1.6210730075836182 
H -1.4760704040527344 0.8042128682136536 0.6139993071556091 
H 0.8481782078742981 2.051994562149048 -0.5612982511520386 
H 0.6060337424278259 0.2973645329475403 1.975902795791626 
