12

C 1.3164820671081543 0.09442949295043945 -0.020233146846294403 
C -0.16487780213356018 -0.2874496877193451 -0.22328251600265503 
C -0.7026070356369019 -1.2312266826629639 0.8537600040435791 
O -0.1523994356393814 -1.4149953126907349 1.9191842079162598 
C -1.069402813911438 0.945629358291626 -0.23917461931705475 
O -0.9634349346160889 1.660441517829895 -1.354517936706543 
H 1.628114104270935 0.8156098127365112 -0.7767805457115173 
H 1.9544007778167725 -0.7999703288078308 -0.08868929743766785 
H 1.4612081050872803 0.5319299697875977 0.9860987067222595 
H -0.30629482865333557 -0.7873387932777405 -1.202067494392395 
H -1.6512665748596191 -1.736924409866333 0.5615968704223633 
H -1.3499218225479126 2.209865093231201 -0.4158943295478821 
