13

N -1.4399487972259521 -0.6450299024581909 1.040151596069336 
C -1.1559786796569824 -0.4005686938762665 -0.23197467625141144 
O -2.24600887298584 -0.6008935570716858 -0.9054061770439148 
C 0.11683546006679535 0.14787989854812622 -0.7562640905380249 
C 0.9339457154273987 1.125423550605774 0.07457136362791061 
C 1.4268999099731445 -0.2770407497882843 -0.10417994111776352 
H -0.7676267027854919 -0.6223452687263489 1.8125965595245361 
H -2.573256254196167 -0.9169127345085144 0.36196842789649963 
H 0.10745561122894287 0.28135058283805847 -1.8406366109848022 
H 1.4291597604751587 1.924767017364502 -0.4784180521965027 
H 0.5355323553085327 1.3959851264953613 1.0510952472686768 
H 2.2575225830078125 -0.4702548682689667 -0.7829503417015076 
H 1.3754682540893555 -0.9423604607582092 0.7594466805458069 
