16

C -1.5807803869247437 -1.0408318042755127 0.5173933506011963 
C -0.8409900069236755 0.0660695880651474 -0.1969590038061142 
C -0.8615519404411316 0.04752425104379654 -1.7079451084136963 
C 1.8704928159713745 0.3625684976577759 0.8685096502304077 
O 3.1250216960906982 0.00472835311666131 1.1745785474777222 
C -0.5240333080291748 1.2260493040084839 0.47240114212036133 
N 0.007150563411414623 2.1140077114105225 1.0793883800506592 
H -1.2226214408874512 -2.0252201557159424 0.17790713906288147 
H -1.456673264503479 -0.9818906188011169 1.6061933040618896 
H -2.6639328002929688 -1.0043259859085083 0.2998024821281433 
H -1.8897898197174072 0.16705136001110077 -2.095750093460083 
H -0.49064379930496216 -0.9178575873374939 -2.085998058319092 
H -0.24872641265392303 0.850447952747345 -2.1381871700286865 
H 1.6591989994049072 0.823233962059021 -0.08388703316450119 
H 1.1389217376708984 0.018407972529530525 1.5787569284439087 
H 3.7430710792541504 0.3347461521625519 0.492787629365921 
