14

C -1.0122663974761963 -1.429195523262024 -0.9041213393211365 
O -0.12305928766727448 -2.1136276721954346 0.004438495263457298 
C -0.1829589605331421 -0.6661766171455383 0.07006003707647324 
C 1.0467110872268677 0.15640367567539215 -0.29585641622543335 
C 0.7106797099113464 1.4606367349624634 0.44940185546875 
C -0.7613621354103088 -0.021653994917869568 1.2936744689941406 
H -0.7173217535018921 -1.442386507987976 -1.9624525308609009 
H -2.076425790786743 -1.574409008026123 -0.7166144251823425 
H 1.9424383640289307 -0.30839359760284424 0.1246984601020813 
H 1.190348744392395 0.31549736857414246 -1.3764972686767578 
H 0.033709827810525894 2.1292476654052734 -0.08566869050264359 
H 1.5607813596725464 1.9954053163528442 0.9020074009895325 
H 0.12025265395641327 1.043256163597107 1.4530096054077148 
H -1.7315270900726318 0.45539623498916626 1.0439203977584839 
