11

C 0.4658505916595459 1.0394207239151 -1.2096420526504517 
N 0.7726726531982422 0.3052075505256653 0.043879397213459015 
N 0.09421330690383911 0.8190912008285522 1.2045904397964478 
C -0.9108827114105225 0.29823267459869385 1.668937087059021 
C -0.44545480608940125 -1.6164023876190186 0.4604167342185974 
N 0.575075089931488 -1.0554983615875244 -0.021294808015227318 
H 1.3771179914474487 1.6080505847930908 -1.4601773023605347 
H 0.25927168130874634 0.30543118715286255 -1.9904625415802002 
H -0.36760762333869934 1.7311681509017944 -1.0667649507522583 
H -1.2794828414916992 -0.7261614799499512 1.8961824178695679 
H -0.5407734513282776 -2.7085397243499756 0.4743351340293884 
