19

C 2.445422887802124 -0.5710962414741516 -0.20439423620700836 
O 1.1655311584472656 -0.9617781043052673 0.2912173867225647 
C 0.3163161277770996 0.06181328743696213 0.6120090484619141 
C 0.0820685625076294 1.290757417678833 -0.3828945755958557 
C -1.3617111444473267 1.145419955253601 -0.10544458031654358 
C -1.2386627197265625 -0.2621055543422699 0.40543562173843384 
C -1.4512900114059448 -1.380088210105896 -0.636523425579071 
H 2.887200355529785 0.21144403517246246 0.42877206206321716 
H 2.360232353210449 -0.19496816396713257 -1.2377698421478271 
H 3.074256658554077 -1.4676111936569214 -0.1940864473581314 
H -0.09193980693817139 1.0626558065414429 1.8888105154037476 
H 0.5634365677833557 2.264061450958252 -0.2541472315788269 
H 0.36043262481689453 0.8648298382759094 -1.3605681657791138 
H -2.0349583625793457 1.9131277799606323 0.27285870909690857 
H -0.7326300740242004 1.5878931283950806 1.855319857597351 
H -1.8414702415466309 -0.4903113543987274 1.2938508987426758 
H -2.5248348712921143 -1.4804987907409668 -0.8457026481628418 
H -0.9437010884284973 -1.1558716297149658 -1.5828372240066528 
H -1.0706759691238403 -2.338620662689209 -0.2596917450428009 
