14

C -1.4713417291641235 -0.5385082364082336 -0.026949187740683556 
C -0.09415706247091293 0.09404493868350983 -0.03726983070373535 
C 1.1133687496185303 -0.8611897826194763 -0.05816122516989708 
O 2.3387651443481445 -0.1793220341205597 -0.10141157358884811 
C 0.06272681057453156 2.003573179244995 -0.018300943076610565 
O 0.11381398141384125 1.029525637626648 1.032121181488037 
H -1.5413211584091187 -1.238276481628418 0.8180822730064392 
H -1.6580735445022583 -1.092367172241211 -0.9568653702735901 
H -2.2489049434661865 0.22457626461982727 0.09122920781373978 
H 1.0615297555923462 -1.5111491680145264 -0.9414419531822205 
H 1.0046584606170654 -1.4937160015106201 0.8460235595703125 
H 2.258283853530884 0.5433768630027771 0.5548468828201294 
H -1.0484464168548584 2.153010845184326 -0.1932031810283661 
H 0.09716512262821198 0.7578822374343872 -0.9942007660865784 
