12

C 0.7655292749404907 0.8466828465461731 0.24888086318969727 
C -0.19883517920970917 0.7183125615119934 -0.9212864637374878 
C -0.7446721792221069 0.9108311533927917 0.5208410024642944 
C -0.7487144470214844 -0.6428715586662292 0.5922096371650696 
C 0.7805598974227905 -0.5680480003356934 0.7599679231643677 
C -0.5642937421798706 -0.7648933529853821 -0.9223158359527588 
H 1.5604865550994873 1.5863691568374634 0.29263320565223694 
H -0.22932521998882294 1.3940509557724 -1.7732607126235962 
H -1.3628181219100952 1.7093347311019897 0.9029195308685303 
H -1.3661834001541138 -1.3432331085205078 1.1605267524719238 
H 1.3247222900390625 -1.8181037902832031 -0.12398999184370041 
H 0.7835441827774048 -2.0284314155578613 -0.737125813961029 
