10

N 1.976269245147705 0.04451939836144447 -0.36228957772254944 
C 0.735771894454956 0.2783038020133972 0.06679393351078033 
N 0.1394486129283905 -0.9501972794532776 0.20724184811115265 
N -1.2083152532577515 -0.6846252679824829 -0.046164195984601974 
C -1.3296369314193726 0.6812469363212585 0.05269189178943634 
N -0.17774933576583862 1.3195406198501587 0.11297731846570969 
H 2.7254652976989746 0.6678840517997742 -0.05796477571129799 
H 1.2972415685653687 -1.2661129236221313 -0.28677961230278015 
H -1.9060841798782349 -1.342996597290039 0.29332518577575684 
H -2.3118560314178467 1.1526212692260742 0.03370998054742813 
