9

O 0.49124133586883545 -0.39093825221061707 -0.8953033685684204 
C -1.0548816919326782 -0.908876895904541 -0.1783759444952011 
C -1.2013975381851196 0.3322015404701233 0.5380434989929199 
C 0.006306944414973259 0.7904110550880432 0.27876126766204834 
C 1.1235222816467285 1.575574278831482 0.6353616714477539 
N 1.915502905845642 2.413682699203491 0.8949806690216064 
H 1.2447704076766968 -0.9232669472694397 -0.5599314570426941 
H -0.8708837628364563 -1.8333067893981934 0.38391348719596863 
H -1.6541811227798462 -1.0554805994033813 -1.097449541091919 
