13

O -1.379183053970337 1.8559818267822266 -1.7357735633850098 
C -0.4600546658039093 1.4974353313446045 -1.0234788656234741 
C -0.7120503187179565 0.8578536510467529 0.3252350389957428 
O -1.4264092445373535 -0.4403304159641266 0.19367718696594238 
C -0.2723643183708191 -1.0650131702423096 0.7679193615913391 
C 0.9815775156021118 -1.0877101421356201 -0.11630057543516159 
C 0.42655783891677856 0.21767331659793854 1.1670608520507812 
H 0.6317716836929321 1.6260619163513184 -1.2667957544326782 
H -1.3012198209762573 1.5278855562210083 0.9685899615287781 
H -0.49137744307518005 -1.9189192056655884 1.4274262189865112 
H 1.6462867259979248 -1.9311716556549072 0.08914858847856522 
H 0.7785477042198181 -0.9617825746536255 -1.1811553239822388 
H 1.5779175758361816 -0.1779644936323166 0.3844466209411621 
