16

C 0.15463615953922272 -0.5737271308898926 1.6686768531799316 
C 1.0969955921173096 -0.6410406231880188 0.44747281074523926 
C 0.8940830230712891 0.30603063106536865 -0.6863285303115845 
C -1.415568232536316 -0.3097098469734192 -1.391598105430603 
C 0.6434307098388672 1.6958199739456177 -0.41988274455070496 
O -0.13103675842285156 2.1564130783081055 0.44327840209007263 
H 0.11983827501535416 0.4428303837776184 2.0617525577545166 
H 0.506004810333252 -1.2599904537200928 2.451766014099121 
H -0.8602127432823181 -0.8974769711494446 1.3961608409881592 
H 2.118746519088745 -0.36720454692840576 0.7477545142173767 
H 1.180595874786377 -1.6718837022781372 0.07225172221660614 
H -0.24338628351688385 -0.2156519740819931 -1.5229562520980835 
H -1.808972716331482 0.042905598878860474 -2.347590923309326 
H -1.6019773483276367 -1.3851120471954346 -1.2415963411331177 
H -1.792109727859497 0.2896668314933777 -0.5491536855697632 
H 1.1389331817626953 2.3881309032440186 -1.130007266998291 
