14

C 0.16843432188034058 -0.16726842522621155 -1.8154360055923462 
C 0.8582066893577576 0.009116895496845245 -0.44693541526794434 
C -0.1264798492193222 0.11559358239173889 0.7238057255744934 
C 0.291631281375885 -0.25983765721321106 2.1144089698791504 
O -0.8836562037467957 -1.1057145595550537 0.9824705719947815 
C -1.0400093793869019 1.2548720836639404 0.6155312657356262 
N -1.748436689376831 2.1886184215545654 0.5397101640701294 
H -0.4705143868923187 -1.0644140243530273 -1.8046228885650635 
H 0.9210633039474487 -0.2955063283443451 -2.6108829975128174 
H -0.4526270925998688 0.6996293663978577 -2.0636208057403564 
H 1.5031994581222534 -0.8426823616027832 -0.2157336175441742 
H 1.4921162128448486 0.8993116021156311 -0.44260281324386597 
H -0.4111572504043579 0.1639401912689209 2.857034683227539 
H -0.10177069902420044 -1.595658540725708 1.5668729543685913 
