14

C 1.2008554935455322 0.46884334087371826 0.5022019147872925 
C -0.02954801172018051 -0.15350370109081268 1.1840492486953735 
C -0.893378496170044 -0.9129399061203003 0.1850200742483139 
C -1.2312328815460205 0.4619815945625305 0.5255407691001892 
N -0.8240870833396912 0.5021963715553284 -0.8818609714508057 
C 0.6486128568649292 0.43988072872161865 -0.9611464738845825 
C 0.43869656324386597 -0.9594746232032776 -1.3802831172943115 
H 1.3975774049758911 1.49360990524292 0.8469532132148743 
H 2.1070239543914795 -0.1361664980649948 0.5914392471313477 
H -0.020709838718175888 -0.42329028248786926 2.2395381927490234 
H -1.5109859704971313 -1.8068894147872925 0.278846800327301 
H -2.1978166103363037 0.8531058430671692 0.8426632881164551 
H 1.064995288848877 1.181936502456665 -1.6603846549987793 
H -0.15000273287296295 -1.0092897415161133 -2.312577247619629 
