15

O 0.7548121213912964 -2.510525703430176 1.161827802658081 
C 0.48659512400627136 -1.4563654661178589 0.5990075469017029 
C -0.7845581769943237 -1.1699497699737549 -0.2029072642326355 
C -1.363034963607788 0.23186826705932617 0.1529737114906311 
C -0.3039201498031616 1.2701345682144165 -0.06693416833877563 
C 1.040764331817627 0.891257643699646 0.052987534552812576 
C 1.4182425737380981 -0.28720226883888245 0.6433490514755249 
H -1.529207468032837 -1.9547547101974487 -0.015382912941277027 
H -0.5452269911766052 -1.1625306606292725 -1.2839103937149048 
H -2.261033773422241 0.438982754945755 -0.44677090644836426 
H -1.6755989789962769 0.24302613735198975 1.2084840536117554 
H 1.2517887353897095 2.107728958129883 -1.6671675443649292 
H -0.5453048944473267 2.263164758682251 -0.46209320425987244 
H 1.65261971950531 1.5808181762695312 -0.7468174695968628 
H 2.4030628204345703 -0.485652893781662 1.0733542442321777 
