15

C 0.6780288219451904 1.3009718656539917 0.6103581190109253 
C 1.4216102361679077 0.01737087592482567 0.9341907501220703 
C 0.11645661294460297 -1.551912784576416 -0.24734137952327728 
O -1.148498773574829 -1.1731418371200562 -0.025908781215548515 
C -1.8142073154449463 -0.37200021743774414 -1.0161473751068115 
H -0.37028968334198 1.244655966758728 0.9290233254432678 
H 1.147201657295227 2.151667594909668 1.1454397439956665 
H 0.7022675275802612 1.5393842458724976 -0.45444822311401367 
H 2.404066801071167 -0.045389506965875626 0.45724767446517944 
H 1.4690207242965698 -0.17401626706123352 2.0155889987945557 
H 0.8931232690811157 -1.2319930791854858 0.6589763164520264 
H 0.5408952832221985 -1.2165404558181763 -1.2021293640136719 
H -2.2475814819335938 -1.03793203830719 -1.777868390083313 
H -2.6289048194885254 0.18428988754749298 -0.5208397507667542 
H -1.1631890535354614 0.36458566784858704 -1.506142020225525 
