13

O 1.4841678142547607 -0.5026164054870605 1.4149844646453857 
C 0.7532137632369995 -0.758700966835022 0.23000700771808624 
C 0.9301455616950989 0.3430519998073578 -0.8402495980262756 
C -0.7762542366981506 0.9634285569190979 0.5898036956787109 
N -0.9419015049934387 0.32575103640556335 -0.9668548703193665 
C -0.7664505243301392 -0.49379292130470276 0.2623227834701538 
H 0.9444824457168579 0.21003641188144684 1.8264260292053223 
H 1.026823878288269 -1.7583930492401123 -0.13046564161777496 
H 1.5226736068725586 1.2133417129516602 -0.5593771934509277 
H 1.1392898559570312 -0.011508394032716751 -1.8608317375183105 
H -1.8099411725997925 1.3536213636398315 0.7495091557502747 
H -1.9508051872253418 0.32863709330558777 -1.2324236631393433 
H -1.5554453134536743 -1.2128562927246094 0.5171496868133545 
