16

C -2.260216474533081 0.9361546635627747 -0.4882694184780121 
C -0.8359261751174927 0.7186993956565857 -1.0228675603866577 
C 0.18139086663722992 0.5675906538963318 0.09292969852685928 
O 1.3980791568756104 -0.1273449808359146 -0.3522631824016571 
C 1.3963072299957275 -1.023924708366394 0.5981741547584534 
O 0.38499486446380615 -1.7418906688690186 1.188539743423462 
N 2.6350257396698 -1.464049220085144 1.0336191654205322 
H -2.9838311672210693 1.0553827285766602 -1.3115772008895874 
H -2.316652774810791 1.8217265605926514 0.15983706712722778 
H -2.5835933685302734 0.05014225095510483 0.09543699771165848 
H -0.5901810526847839 1.5842198133468628 -1.6762126684188843 
H -0.8337301015853882 -0.1704600304365158 -1.6756398677825928 
H -0.3610023856163025 -1.071569800376892 0.9949864745140076 
H 0.4107424020767212 1.491151213645935 0.6257544159889221 
H 3.162217617034912 -1.8991338014602661 0.23209473490715027 
H 3.1963746547698975 -0.7266942262649536 1.5054575204849243 
