9

O -1.307208776473999 -0.5362417101860046 2.643143653869629 
C -0.5285932421684265 -0.6306822299957275 1.737386703491211 
C 0.029536373913288116 -0.43401899933815 0.5523790121078491 
N 1.0264112949371338 -0.2879488468170166 -0.27896934747695923 
C 0.8612834811210632 0.4679226279258728 -1.3447965383529663 
N -0.39220020174980164 1.0527033805847168 -1.6186071634292603 
O -1.1076700687408447 1.274347186088562 -0.6739775538444519 
H -0.26394662261009216 -1.7188783884048462 0.9414413571357727 
H 1.6823875904083252 0.812796950340271 -1.9579999446868896 
