10

N 0.6096635460853577 1.690155267715454 -0.09172936528921127 
C 0.15079186856746674 0.41632017493247986 0.1290956288576126 
C -1.0737135410308838 -0.15098094940185547 -0.029709141701459885 
N -0.9517122507095337 -1.5303525924682617 0.1668945848941803 
C 0.38185906410217285 -1.7935048341751099 0.4586523771286011 
O 1.08584725856781 -0.5978716611862183 0.3817097544670105 
H 1.0032258033752441 2.152562141418457 0.7249689102172852 
H 1.1493823528289795 1.8315848112106323 -0.943149745464325 
H -2.010789155960083 0.32751035690307617 -0.29342150688171387 
H -0.3445548713207245 -2.3454227447509766 -0.5033113956451416 
