11

C -1.7321338653564453 -0.08663914352655411 -0.30374953150749207 
C -1.6786171197891235 0.8741666078567505 0.5393232107162476 
C -0.2671477794647217 -0.1749078333377838 0.8483409881591797 
C 0.973246157169342 0.399299681186676 0.11485408991575241 
C 1.0548722743988037 -0.0514497384428978 -1.2719740867614746 
N 1.128814697265625 -0.428192138671875 -2.3863399028778076 
H -1.854203462600708 -0.8906204104423523 -1.0181934833526611 
H -0.2533656060695648 -1.275349497795105 0.7551417946815491 
H -0.20386765897274017 0.059253107756376266 1.913153052330017 
H 0.9482647776603699 1.492795467376709 0.15515963733196259 
H 1.8841376304626465 0.08164389431476593 0.6542839407920837 
