11

C -1.559048056602478 -0.5535029172897339 0.009255741722881794 
N -0.22659966349601746 -0.07447323203086853 -0.07739518582820892 
N 0.7382500767707825 -0.7744326591491699 -0.6650473475456238 
C 2.0058958530426025 -0.415065735578537 -0.18718257546424866 
O 2.2559924125671387 0.3878697454929352 0.707234799861908 
C -0.4588382840156555 1.2778985500335693 0.24709798395633698 
O 0.11937545239925385 2.224574089050293 0.6803820729255676 
H -2.2354581356048584 -0.4033176600933075 -0.8385611772537231 
H -1.6395342350006104 -1.5387526750564575 0.4857906997203827 
H -1.7437602281570435 0.8639581203460693 0.4256652593612671 
H 2.7901675701141357 -0.9394356608390808 -0.7671013474464417 
