11

C 1.044435977935791 -0.947950005531311 0.20114286243915558 
C 0.16793131828308105 0.006005964707583189 0.9404382109642029 
C -1.9178829193115234 0.15339544415473938 -0.44525063037872314 
C -2.194622039794922 0.7673965692520142 -1.4997034072875977 
C -0.9623647928237915 1.4167100191116333 -0.9983454942703247 
N 0.20245607197284698 1.7494136095046997 -1.0328012704849243 
H 1.3709889650344849 -1.750233769416809 0.8950093984603882 
H 0.49616870284080505 -1.4538146257400513 -0.6064162850379944 
H 1.920620322227478 -0.4732974171638489 -0.2457839846611023 
H 0.552996814250946 0.9489358067512512 1.3047935962677002 
H -0.6807283759117126 -0.41656166315078735 1.4869171380996704 
