13

N -0.6351256370544434 0.5400214195251465 -1.8453936576843262 
C -0.8902040123939514 1.8223817348480225 0.28632110357284546 
O -0.13940201699733734 0.9541564583778381 1.0084726810455322 
C 0.901155412197113 0.041652433574199677 0.5595356225967407 
C 0.2528402805328369 -1.3763478994369507 0.3555811643600464 
C -0.9499080777168274 -1.1699408292770386 -0.4776194095611572 
N -1.2922707796096802 0.0008539573755115271 -0.765609860420227 
H -0.18383291363716125 -0.179568350315094 -2.387065887451172 
H -0.9769219756126404 2.6803126335144043 0.976512610912323 
H 1.6456321477890015 0.053849924355745316 1.3457911014556885 
H 1.2879321575164795 0.4337272346019745 -0.39109617471694946 
H 0.9973533153533936 -2.0780704021453857 -0.03643394261598587 
H -0.017248261719942093 -1.7230279445648193 1.3710047006607056 
