14

C 0.9351029992103577 0.569457471370697 1.5888853073120117 
O 1.2799402475357056 0.42981547117233276 0.22800862789154053 
C 0.7753123044967651 -0.6491727232933044 -0.3675073981285095 
C -1.2209199666976929 -0.09846306592226028 -0.012241699732840061 
C -0.4155968725681305 -0.43958091735839844 -1.2744535207748413 
O -0.29413890838623047 0.5887621641159058 -2.237300157546997 
H 1.5471808910369873 1.3911409378051758 1.9905004501342773 
H -0.4689197838306427 0.2796633243560791 1.1056361198425293 
H 1.0330228805541992 -0.34349364042282104 2.180426597595215 
H 0.8292876482009888 -1.5826232433319092 0.2119249403476715 
H -1.6824153661727905 0.8835829496383667 -0.10808078199625015 
H -1.9229066371917725 -0.8823487162590027 0.30862051248550415 
H -0.703055739402771 -1.3744889497756958 -1.7652934789657593 
H 0.3081061542034149 1.2277488708496094 -1.849125862121582 
