12

O 1.049353003501892 -0.41595548391342163 -2.252263307571411 
C 0.7291060090065002 -0.2466360479593277 -1.0971534252166748 
C -0.9988062977790833 -0.6908661127090454 -0.6259697675704956 
C -0.9229157567024231 0.41712984442710876 0.271290123462677 
C 0.19742892682552338 0.34034302830696106 1.2292797565460205 
C 1.1971937417984009 0.3094503581523895 0.09156011044979095 
H -0.9224435091018677 -1.685322642326355 -0.19187486171722412 
H -1.6788102388381958 -0.6223466396331787 -1.4776668548583984 
H -1.3814420700073242 1.3858978748321533 0.06857867538928986 
H 0.1639956384897232 -0.5523343086242676 1.8834913969039917 
H 0.31172889471054077 1.2220146656036377 1.8738963603973389 
H 2.2556111812591553 0.5386253595352173 0.22683186829090118 
