14

C -0.09463144838809967 0.32408639788627625 1.924017310142517 
C 0.05924287810921669 0.09364987909793854 0.4484710991382599 
C 0.8036519289016724 -1.0732730627059937 -0.11302249878644943 
C 0.13730040192604065 -0.6124669313430786 -1.3880923986434937 
C -0.564754068851471 0.8351618647575378 -0.5818033218383789 
C -1.1439772844314575 1.8252685070037842 -1.169549584388733 
H -0.7431381940841675 1.1886794567108154 2.1087450981140137 
H -0.5274012684822083 -0.562318742275238 2.4115242958068848 
H 0.8926336765289307 0.5111820697784424 2.3829593658447266 
H 0.46140292286872864 -2.051664352416992 0.2573893368244171 
H 1.8990752696990967 -0.99892657995224 -0.10299898684024811 
H 0.7716552019119263 -0.20351897180080414 -2.1793651580810547 
H -0.7106078863143921 -1.1993095874786377 -1.741803526878357 
H -1.2404518127441406 1.9234496355056763 -2.2564704418182373 
