10

O 1.9221795797348022 -0.024936124682426453 -0.6269400715827942 
C 0.7525569200515747 -0.09715503454208374 -1.3179162740707397 
C -0.46260660886764526 0.40339797735214233 -0.7195969820022583 
N -1.5950725078582764 -0.3759966194629669 -0.44605645537376404 
C -1.2487226724624634 -0.6084548234939575 0.8132583498954773 
N -0.20284487307071686 0.15967795252799988 1.218914270401001 
H 2.511216878890991 0.621864914894104 -1.0568169355392456 
H -0.5953046679496765 1.4925878047943115 -0.6848630905151367 
H -1.812616229057312 -1.2890897989273071 1.474218487739563 
H 0.7312145233154297 -0.2818962335586548 1.3457989692687988 
