16

C -0.5164068937301636 -1.0722392797470093 0.5272018909454346 
C -1.362805724143982 0.10474726557731628 -0.010974218137562275 
C -0.551024317741394 1.4128857851028442 -0.21356886625289917 
O 0.65484219789505 1.2052983045578003 -0.9597709774971008 
C 1.7298345565795898 -0.0514620766043663 0.17445574700832367 
C 0.8365406394004822 -1.0882028341293335 -0.1948198676109314 
H -1.0595496892929077 -2.0148658752441406 0.3698585629463196 
H -0.3703557848930359 -0.9702972769737244 1.6164271831512451 
H -1.7673765420913696 -0.19247443974018097 -0.9918493032455444 
H -2.222592830657959 0.3107585310935974 0.6454037427902222 
H -0.2998630106449127 1.8573966026306152 0.7647119760513306 
H -1.1797447204589844 2.1468307971954346 -0.7458470463752747 
H 1.5879473686218262 0.5710322260856628 1.0596133470535278 
H 2.7170772552490234 -0.004061221610754728 -0.2870039641857147 
H 1.2356458902359009 -2.0169835090637207 -0.6070602536201477 
H 0.6172856688499451 -0.11321670562028885 -1.1481868028640747 
