11

C 1.721652626991272 0.32429787516593933 -0.053463514894247055 
C 0.41154563426971436 -0.4302891790866852 0.15132343769073486 
C -0.7756893634796143 0.1319027543067932 -0.4262365996837616 
C -2.1066887378692627 -0.2399364411830902 0.07583889365196228 
N -2.082761526107788 -0.3457989990711212 1.339452862739563 
O 0.39249730110168457 -1.4539371728897095 0.8629589676856995 
H 2.0149717330932617 0.8017125725746155 0.894024670124054 
H 2.5071158409118652 -0.3906085193157196 -0.33679860830307007 
H 1.6545441150665283 1.0955467224121094 -0.828713059425354 
H -0.7518953680992126 0.9547064304351807 -1.1366984844207764 
H -2.985292673110962 -0.44759616255760193 -0.5416885614395142 
