14

O 0.09770889580249786 2.0175821781158447 -0.5203632116317749 
C -0.9503999352455139 1.0638961791992188 -0.42782410979270935 
C -0.3326662480831146 -0.3815906345844269 -0.39320501685142517 
O 0.8346030712127686 -0.42607346177101135 -1.1116235256195068 
C 0.11529678851366043 -0.6970175504684448 1.0532035827636719 
O 1.169893741607666 -0.010082689113914967 1.424898386001587 
H 0.6854560375213623 1.6111122369766235 -1.1781970262527466 
H -1.6299375295639038 1.1243277788162231 -1.2887598276138306 
H -1.557515025138855 1.238387107849121 0.4769994914531708 
H -1.142021894454956 -1.0862534046173096 -0.6361120939254761 
H 1.0850648880004883 -1.813512921333313 -0.3257719874382019 
H -0.5181194543838501 -1.118449330329895 1.8456995487213135 
H 0.8338252902030945 -2.116239070892334 0.4218493700027466 
H 1.3088116645812988 0.5939133167266846 0.659206211566925 
