13

C 0.6755097508430481 0.20793214440345764 1.367993950843811 
C 0.06351820379495621 0.7407572269439697 0.06874404847621918 
O 1.0201672315597534 1.2883635759353638 -0.8246558904647827 
C -0.45032069087028503 -0.7851118445396423 -0.9755117893218994 
O 0.5047152638435364 -1.1677104234695435 -1.6249605417251587 
N -1.6923418045043945 -1.0267672538757324 -0.6889089345932007 
H 1.3312228918075562 0.9736735224723816 1.8114502429962158 
H 1.30121910572052 -0.6705782413482666 1.1456502676010132 
H -0.09998651593923569 -0.06024933233857155 2.094438076019287 
H -0.6137112379074097 1.5788599252700806 0.23908843100070953 
H 1.410865306854248 0.5133393406867981 -1.2920347452163696 
H -1.2728471755981445 0.1145077496767044 -0.017883948981761932 
H -2.1780107021331787 -1.7070164680480957 -1.303409218788147 
