14

O 0.1504841148853302 -0.8218773603439331 1.6699823141098022 
C -0.702464759349823 -0.5661126971244812 0.7852483987808228 
C -1.909168004989624 -1.171110987663269 0.4442114233970642 
N 0.0293341763317585 -0.25592735409736633 -1.233605146408081 
C 1.4323093891143799 -0.11576970666646957 -0.7244144678115845 
C 1.0380679368972778 1.170709490776062 0.04834942892193794 
C -0.38636404275894165 0.6657123565673828 -0.23639032244682312 
H -2.4258766174316406 -0.865119218826294 -0.46846136450767517 
H -2.486058235168457 -1.7055751085281372 1.1996413469314575 
H 2.093120574951172 0.027135249227285385 -1.598457932472229 
H 1.760697364807129 -0.9437225461006165 -0.07704277336597443 
H 1.3325804471969604 2.0982019901275635 -0.4486083686351776 
H 1.3188849687576294 1.1679332256317139 1.1162388324737549 
H -1.2455475330352783 1.3155226707458496 -0.476691335439682 
