11

O -2.26947021484375 0.6160947680473328 -0.3658190369606018 
C -0.9835730791091919 0.23250359296798706 -0.4584197700023651 
N 0.07810281217098236 0.955266535282135 -0.250383198261261 
C 1.1104991436004639 -0.007295776158571243 -0.436381071805954 
O 2.3840384483337402 0.4461314082145691 -0.6174941062927246 
C 0.6563136577606201 -1.3384119272232056 -0.8427454829216003 
N -0.7164376974105835 -1.084181547164917 -0.7719283699989319 
H -2.274254322052002 1.56521737575531 -0.13215571641921997 
H 2.4044651985168457 1.3441545963287354 -0.23308193683624268 
H 1.0818995237350464 -0.8548906445503235 0.48732608556747437 
H -1.4338934421539307 -1.7993543148040771 -0.8543283939361572 
