12

C 0.2895864248275757 0.31967657804489136 1.4019129276275635 
C -0.11538786441087723 -0.7717351913452148 0.4134640097618103 
O 0.912955641746521 -1.187800407409668 -0.44702762365341187 
C 0.24229775369167328 0.3015555441379547 -1.9371055364608765 
O 0.08470596373081207 1.18994140625 -0.9465241432189941 
C -0.5849524140357971 0.6510937809944153 0.19752740859985352 
H -0.23026853799819946 0.327053040266037 2.3594276905059814 
H 1.3213379383087158 0.6706880927085876 1.3890517950057983 
H -0.7963850498199463 -1.56797456741333 0.7094373106956482 
H 1.1319459676742554 -0.6085191965103149 -1.3721064329147339 
H -0.6497399806976318 -0.32632115483283997 -2.1019034385681152 
H -1.606095790863037 1.0023419857025146 0.3338465392589569 
