14

C 0.32098865509033203 1.4748103618621826 1.0327013731002808 
C 0.5648661255836487 0.741005003452301 -0.300068199634552 
C -0.10944349318742752 -0.642953634262085 -0.3620678186416626 
C -0.4651951789855957 -1.2814420461654663 -1.6714491844177246 
O -1.5715625286102295 -0.5662423372268677 -0.3939862847328186 
C 0.3013933002948761 -1.5631051063537598 0.698701798915863 
N 0.6647143363952637 -2.3199470043182373 1.5175154209136963 
H 0.8176971673965454 2.4515528678894043 1.0168828964233398 
H -0.7475828528404236 1.632307529449463 1.1927629709243774 
H 0.7265245318412781 0.9078323245048523 1.8822051286697388 
H 0.16958707571029663 1.3104134798049927 -1.1491503715515137 
H 1.6382890939712524 0.5706100463867188 -0.4672285318374634 
H -0.6715463995933533 -2.357257843017578 -1.5246565341949463 
H -1.6387298107147217 -0.3575839102268219 -1.4721627235412598 
