14

C -1.7883555889129639 0.038041505962610245 0.5957149267196655 
C -0.44989460706710815 0.5716438293457031 0.1854708343744278 
C -0.15141969919204712 1.092926025390625 -1.0467252731323242 
C 1.7856000661849976 -0.29863640666007996 -0.8543123602867126 
C 1.4215352535247803 -0.6495867371559143 0.5396273732185364 
O 0.5285405516624451 0.3428618907928467 1.127562403678894 
H -1.7186118364334106 -1.0435036420822144 0.8039306998252869 
H -2.1112194061279297 0.5165295004844666 1.532975196838379 
H -2.5534121990203857 0.21416640281677246 -0.16962192952632904 
H 0.7004267573356628 1.7310444116592407 -1.2234328985214233 
H -0.9317247867584229 1.07988703250885 -1.8109300136566162 
H 1.9435186386108398 -1.2578970193862915 -1.40378999710083 
H 2.3802201747894287 -0.6787906289100647 1.0981409549713135 
H 0.9136565923690796 -1.6114730834960938 0.7509869933128357 
