13

C -0.9506673812866211 1.3165401220321655 -1.6395779848098755 
N 0.2578517198562622 1.5779507160186768 -0.9574533700942993 
C 0.18658699095249176 0.1151457354426384 -0.7910082340240479 
C -0.18676117062568665 -0.39055296778678894 0.5734756588935852 
C 0.7653384804725647 -1.1887222528457642 1.3849940299987793 
O -0.3112257122993469 -1.8223336935043335 0.6725334525108337 
H -0.6549466848373413 -0.18521419167518616 -1.6187728643417358 
H -1.7905442714691162 1.2953732013702393 -0.9136769771575928 
H 0.16609877347946167 1.9846850633621216 -0.007866904139518738 
H 1.0608726739883423 -0.3477543294429779 -1.258394479751587 
H -0.9776827692985535 0.174677774310112 1.0898383855819702 
H 1.7712020874023438 -1.363448143005371 0.992773175239563 
H 0.6638773679733276 -1.1663472652435303 2.4731364250183105 
