12

O -0.871854305267334 -1.0292227268218994 1.3603798151016235 
C 0.0225887019187212 0.4440824091434479 0.7754364609718323 
C 0.9390485286712646 -0.24252371490001678 -0.0743025690317154 
C 0.24292343854904175 0.18474961817264557 -1.3905858993530273 
C -0.8031267523765564 0.8334362506866455 -0.4551865756511688 
O -1.8294421434402466 1.4643417596817017 -0.6019855737686157 
H -0.3674022853374481 -1.3433597087860107 2.1717758178710938 
H 0.04838074371218681 1.0067473649978638 1.7087334394454956 
H 2.022160768508911 -0.2984437644481659 0.06951819360256195 
H -0.07687816768884659 -1.3052613735198975 0.49264824390411377 
H -0.11459573358297348 -0.628070592880249 -2.046485185623169 
H 0.7881971597671509 0.9135246872901917 -2.00994610786438 
