14

C 0.6651182770729065 0.9366413950920105 -0.7852181196212769 
C -0.49903783202171326 0.10098409652709961 -0.35215726494789124 
N -1.7246758937835693 0.3110834062099457 -0.7649231553077698 
O -2.101322650909424 1.6565890312194824 -0.6447023749351501 
C -0.29058659076690674 -0.9499411582946777 0.6859976053237915 
C 0.7888668179512024 -1.9564383029937744 0.41038212180137634 
O 0.6819037199020386 -0.6779083013534546 1.7678025960922241 
H 1.0062017440795898 1.61882483959198 0.019221225753426552 
H 1.5287278890609741 0.28349485993385315 -1.0317662954330444 
H 0.45353251695632935 1.5454387664794922 -1.6717727184295654 
H -1.423060655593872 2.282130718231201 -0.9757266640663147 
H -1.2293026447296143 -1.2821190357208252 1.1391878128051758 
H 0.5819214582443237 -2.8967816829681396 0.9563493132591248 
H 1.5617135763168335 -0.9719984531402588 1.2473257780075073 
