16

N -2.158478021621704 -1.4078407287597656 0.8648023009300232 
C -0.9617717862129211 -1.1574313640594482 0.786337673664093 
C 0.37977921962738037 -1.2504050731658936 0.3884011507034302 
C 0.6506823897361755 -0.5986887216567993 -0.9933204650878906 
C 0.7785589694976807 0.936958909034729 -0.8524901270866394 
C -0.19842033088207245 1.5604459047317505 0.182307630777359 
O -0.06800156086683273 0.9287296533584595 1.4156395196914673 
H -2.5849521160125732 -1.3956942558288574 1.8029258251190186 
H 0.8954706788063049 -2.1867191791534424 0.6345098614692688 
H 0.6344261765480042 -0.28206971287727356 1.1547800302505493 
H -0.18227563798427582 -0.8654776811599731 -1.667911410331726 
H 1.5584737062454224 -1.0307756662368774 -1.4305169582366943 
H 1.7953625917434692 1.1805005073547363 -0.5020382404327393 
H 0.6731084585189819 1.4219212532043457 -1.8357685804367065 
H -1.2319434881210327 1.4962996244430542 -0.2108989655971527 
H 0.01998058892786503 2.6502466201782227 0.2632405757904053 
