14

C -0.30352455377578735 1.7692726850509644 0.47485050559043884 
N -1.3565447330474854 0.8762013912200928 0.968404233455658 
C -0.35591331124305725 0.3095341920852661 0.08460091054439545 
C 0.48966965079307556 -0.8981314897537231 0.606224775314331 
C 0.6072168350219727 -1.2962377071380615 -1.0739808082580566 
C -0.38179630041122437 -0.24430742859840393 -1.2560139894485474 
O -0.17426809668540955 -1.7593141794204712 1.3160924911499023 
H -0.6444041132926941 2.489955425262451 -0.2746752202510834 
H 0.5467898845672607 2.065748453140259 1.0864286422729492 
H -1.1596781015396118 0.5255938172340393 1.901520848274231 
H 1.5314433574676514 -0.6235129833221436 0.924334704875946 
H 1.6268856525421143 -1.1377686262130737 -1.4153296947479248 
H 0.27510198950767517 -2.3387839794158936 -1.1744306087493896 
H -0.7009780406951904 0.26175040006637573 -2.168026924133301 
