16

N 2.6425106525421143 0.585595428943634 0.18338124454021454 
C 1.4375994205474854 0.309780091047287 -0.0934145376086235 
C 0.8727437853813171 -1.0825587511062622 -0.08616381883621216 
C -0.5870643854141235 -1.1060038805007935 0.390288382768631 
C -1.3827773332595825 -0.10565841943025589 -0.45574524998664856 
C -0.7910061478614807 1.284224271774292 -0.5330197215080261 
O 0.5618913173675537 1.3655014038085938 -0.4923625886440277 
H 2.809312582015991 1.5967862606048584 0.08017841726541519 
H 0.9166708588600159 -1.4687230587005615 -1.1185495853424072 
H 1.5337237119674683 -1.7079349756240845 0.5241257548332214 
H -0.6476990580558777 -0.8068392872810364 1.447340726852417 
H -0.9945117831230164 -2.1234307289123535 0.30383050441741943 
H -1.410098910331726 -0.460146963596344 -1.5028611421585083 
H -2.4250190258026123 -0.016065271571278572 -0.12390193343162537 
H -1.3273975849151611 1.8097981214523315 1.2495293617248535 
H -1.3103851079940796 2.06892466545105 0.3340572118759155 
