18

C -1.215455174446106 -0.5681983232498169 1.7109698057174683 
C -1.7753818035125732 0.1312083750963211 0.4631669223308563 
C -0.7729961276054382 1.0137518644332886 -0.26779839396476746 
C 0.8357512950897217 -0.5048608779907227 -1.3272150754928589 
C 2.1284542083740234 -0.08611554652452469 -0.8153225779533386 
C 0.3875037431716919 1.4608079195022583 0.3212133049964905 
N 1.5290579795837402 1.5649876594543457 0.6900461316108704 
H -1.9618356227874756 -1.2359004020690918 2.1566474437713623 
H -0.9196784496307373 0.17613457143306732 2.4670393466949463 
H -0.33169519901275635 -1.1724627017974854 1.488690972328186 
H -2.6465301513671875 0.7483799457550049 0.7369669675827026 
H -2.1724538803100586 -0.6161403059959412 -0.24607835710048676 
H -1.120896339416504 1.5640318393707275 -1.138607382774353 
H 0.29235517978668213 -1.3314636945724487 -0.8905881643295288 
H 0.4757651388645172 -0.10980784147977829 -2.2739782333374023 
H 2.583697557449341 -0.5870108008384705 0.02673656865954399 
H 1.9620225429534912 -1.0873751640319824 -1.7386417388916016 
H 2.7223143577575684 0.6400337219238281 -1.3632476329803467 
