13

N 1.455125331878662 -1.2388768196105957 -1.1958118677139282 
C 1.0500905513763428 -0.23089857399463654 -0.5490599274635315 
O 1.683447003364563 0.8649024367332458 0.01498106773942709 
C 0.39892324805259705 1.3596105575561523 0.5746882557868958 
C -0.32232263684272766 0.18065600097179413 -0.08510058373212814 
C -1.6063071489334106 0.14216949045658112 -0.8263688087463379 
N -1.1113781929016113 -0.813154935836792 0.6626729965209961 
H 2.4714438915252686 -1.248100996017456 -1.3352571725845337 
H 0.4248350262641907 1.3569656610488892 1.6689598560333252 
H 0.15123756229877472 2.343587875366211 0.16359566152095795 
H -1.5037211179733276 -0.6023990511894226 -1.6399716138839722 
H -2.163062810897827 -0.42446714639663696 0.36307284235954285 
H -0.8960818648338318 -1.7539335489273071 0.3042413592338562 
