17

O 2.3977386951446533 -0.12881535291671753 1.3095513582229614 
C 1.6169272661209106 -0.6580563187599182 0.3687831461429596 
C 0.12660421431064606 -0.3739088475704193 0.4004984498023987 
C -0.28558549284935 1.0950692892074585 0.22409915924072266 
C -1.776924729347229 0.9393267035484314 -0.07463981211185455 
O -1.8957337141036987 -0.2591855525970459 -0.8603189587593079 
C -0.7392174601554871 -1.0821864604949951 -0.6569094657897949 
H 2.483459234237671 0.22968506813049316 -0.023483356460928917 
H 1.982778787612915 0.05074915662407875 -0.8859624862670898 
H 1.8653790950775146 -1.6673697233200073 -0.037720441818237305 
H -0.1635621339082718 -0.707184374332428 1.4117281436920166 
H -0.06403082609176636 1.7169413566589355 1.0976649522781372 
H 0.234787255525589 1.5081729888916016 -0.6550441384315491 
H -2.1969234943389893 1.7706692218780518 -0.6562971472740173 
H -2.3521578311920166 0.8419947624206543 0.8638843894004822 
H -0.19392986595630646 -1.1855651140213013 -1.6128286123275757 
H -1.0529301166534424 -2.0849008560180664 -0.3288702666759491 
