16

C -1.0475502014160156 -1.4232548475265503 0.4775262773036957 
C -0.05832469463348389 -0.39617443084716797 1.0067063570022583 
C -0.04528505355119705 1.0136302709579468 0.47875669598579407 
C -0.4807014465332031 1.3555867671966553 -0.8032192587852478 
C 1.3127110004425049 -0.3158656060695648 0.3703247904777527 
O 1.5346653461456299 -0.7845650315284729 -0.8153724074363708 
H -1.1080126762390137 -1.3805429935455322 -0.6281449198722839 
H -0.7300547957420349 -2.4363412857055664 0.748838484287262 
H -2.0492706298828125 -1.2409247159957886 0.8790867328643799 
H 0.012955645099282265 -0.4183153510093689 2.1022157669067383 
H 0.371506929397583 1.7964941263198853 1.1151090860366821 
H -0.41311782598495483 2.390913963317871 -1.141300082206726 
H 0.6125074625015259 0.873761773109436 -1.7910778522491455 
H -1.240444540977478 0.7671990990638733 -1.3083277940750122 
H 2.1380083560943604 0.02826586738228798 1.0031752586364746 
H 1.1904069185256958 0.170132577419281 -1.6942973136901855 
