17

C 1.1301465034484863 -1.8897238969802856 0.39220038056373596 
C 1.138109803199768 -0.5481321215629578 1.0120102167129517 
C 0.42443275451660156 0.053517404943704605 -0.17360535264015198 
C 1.0361307859420776 0.7556542754173279 -1.205957293510437 
C -1.489264726638794 1.4279167652130127 -0.5985308885574341 
C -1.9186748266220093 0.6561718583106995 0.5951927900314331 
C -1.0188915729522705 -0.007999544963240623 -0.44559723138809204 
H 1.8612792491912842 -2.15334415435791 -0.35942089557647705 
H 0.2837083041667938 -2.5481255054473877 0.5152161121368408 
H 0.5436266660690308 -0.47186148166656494 1.931222915649414 
H 2.1418981552124023 -0.13207373023033142 1.1562141180038452 
H 0.8957110643386841 0.4665246605873108 -2.2433178424835205 
H 1.6992417573928833 1.5976169109344482 -1.0143872499465942 
H -0.8448510766029358 2.301024913787842 -0.5482453107833862 
H -1.4939781427383423 0.8881003260612488 1.573108196258545 
H -2.955425977706909 0.31121721863746643 0.5860636830329895 
H -1.4331979751586914 -0.7064843773841858 -1.172166109085083 
