15

C -1.9991886615753174 0.16658107936382294 -1.474039077758789 
C -0.8194109201431274 -0.6017811894416809 -1.0174239873886108 
O 0.41867539286613464 0.014788203872740269 -1.0914603471755981 
C 0.8045612573623657 -0.22666007280349731 0.18487709760665894 
C 0.32730478048324585 0.4432511031627655 1.456683874130249 
O 1.7043044567108154 0.4526858627796173 1.9715564250946045 
C 2.1995770931243896 -0.22657229006290436 0.7811892628669739 
H -2.9292938709259033 -0.17325057089328766 -0.9922118186950684 
H -1.880164384841919 1.2510439157485962 -1.2705717086791992 
H -2.094149351119995 0.05890378728508949 -2.5677425861358643 
H -0.8621286749839783 -1.6094263792037964 -0.6476127505302429 
H -0.3322848081588745 -0.13210560381412506 2.1314351558685303 
H -0.10859416425228119 1.4494763612747192 1.3256239891052246 
H 2.6283724308013916 -1.2214686870574951 0.9971643686294556 
H 2.9424195289611816 0.35453444719314575 0.21253225207328796 
