14

C -1.951647162437439 -0.27104055881500244 -0.9287312030792236 
C -0.6380283832550049 -0.6067038774490356 -0.20619428157806396 
C -0.020899849012494087 0.5891880393028259 0.4176536500453949 
C 0.08976881206035614 1.8662800788879395 0.5121685862541199 
C 1.7864505052566528 0.705956757068634 0.6370105743408203 
O 2.127790927886963 -0.6080580949783325 0.39258071780204773 
H -2.392825126647949 -1.1720683574676514 -1.3603856563568115 
H -1.7768354415893555 0.4755362570285797 -1.7125474214553833 
H -2.6689274311065674 0.1599377989768982 -0.19989879429340363 
H 0.09880845993757248 -1.054882526397705 -0.8959705829620361 
H -0.795193076133728 -1.3725297451019287 0.5758318305015564 
H 2.256894111633301 1.352410912513733 -0.10714560002088547 
H 1.9619582891464233 1.0541526079177856 1.6587659120559692 
H 1.9226858615875244 -1.1181795597076416 1.2168623208999634 
