13

N -2.037989616394043 0.20923596620559692 1.2901467084884644 
C -0.6664435863494873 0.06776422262191772 0.8542649149894714 
C 0.3745919167995453 0.7410820722579956 1.4178611040115356 
C 1.2956832647323608 0.7344520092010498 -0.7247753143310547 
C 0.6362795829772949 -0.411205530166626 -1.0254772901535034 
O 1.1920812129974365 -1.45570707321167 -1.747646450996399 
N -0.471693754196167 -0.7448428869247437 -0.2703636586666107 
H -2.042167901992798 0.32392236590385437 2.3085134029388428 
H -2.4286928176879883 1.0907511711120605 0.9000808000564575 
H 1.253782033920288 1.1083641052246094 0.43912047147750854 
H 2.0298728942871094 1.223928451538086 -1.3731063604354858 
H 2.080918550491333 -1.6482542753219604 -1.3548150062561035 
H -1.216221809387207 -1.2394903898239136 -0.7138029932975769 
