12

N -1.4598891735076904 1.7706551551818848 -2.18512225151062 
C -1.0578405857086182 1.072809100151062 -1.3452434539794922 
C -0.7410287857055664 0.17668083310127258 -0.2703116238117218 
C -0.18570710718631744 0.7023504376411438 1.0678483247756958 
N 0.6825767159461975 -0.36485555768013 1.5895408391952515 
C 1.1056755781173706 -1.047556757926941 0.5933437347412109 
N 0.3557315468788147 -0.8595073819160461 -0.6172482967376709 
H -0.7325567007064819 -1.2342838048934937 -0.6112379431724548 
H 0.4168357849121094 1.6167515516281128 0.9310763478279114 
H -0.9855319857597351 0.9140874147415161 1.7957781553268433 
H 1.8531686067581177 -1.8399080038070679 0.6155667901039124 
H 0.748566210269928 -0.9072233438491821 -1.5639907121658325 
