18

C -0.5865290760993958 -1.645305871963501 0.1384580433368683 
C 0.006378275342285633 -0.2366335093975067 -0.03285898640751839 
C 1.3519281148910522 -0.3073688745498657 -0.7646229267120361 
C 0.17027835547924042 0.4916103780269623 1.3333510160446167 
C -0.7411999106407166 2.037628412246704 0.02809619903564453 
C -0.9612542986869812 0.7365083694458008 -0.7437113523483276 
H -1.5601375102996826 -1.6122854948043823 0.6476017236709595 
H -0.7288452982902527 -2.140437364578247 -0.8276405334472656 
H 0.07229342311620712 -2.2766263484954834 0.757637083530426 
H 1.2306857109069824 -0.7466364502906799 -1.7694491147994995 
H 2.0623011589050293 -0.9449083209037781 -0.2155901938676834 
H 1.805299162864685 0.6835904717445374 -0.8747091889381409 
H 1.19966459274292 0.7844262719154358 1.5955967903137207 
H -0.3195084035396576 0.0028990809805691242 2.179133653640747 
H 0.25351130962371826 2.391897678375244 -0.31117358803749084 
H -0.4844996929168701 1.5144397020339966 1.3256721496582031 
H -2.017695665359497 0.4348587393760681 -0.6490243673324585 
H -0.7526702880859375 0.8323424458503723 -1.8167660236358643 
