14

O -2.646925449371338 -0.11995149403810501 0.8988689184188843 
C -1.650919795036316 0.6690769791603088 0.7246160507202148 
C -0.5993205904960632 0.04101237654685974 0.022167475894093513 
C 0.6060062050819397 -0.6974964141845703 0.6919687986373901 
C 1.42095148563385 -0.42967915534973145 -0.6092903017997742 
C 0.37873777747154236 0.6451138854026794 -1.0233442783355713 
H -1.6943784952163696 1.6896820068359375 1.1500929594039917 
H -1.837181806564331 -0.8700945973396301 0.18045563995838165 
H 0.9737693071365356 -0.1274852305650711 1.5541869401931763 
H 0.453731507062912 -1.7547314167022705 0.9748203754425049 
H 1.425764560699463 -1.286566972732544 -1.2833563089370728 
H 2.4517621994018555 -0.07152806967496872 -0.4646897614002228 
H 0.032950419932603836 0.6469766497612 -2.0673201084136963 
H 0.6850528717041016 1.6656711101531982 -0.7491762042045593 
