13

C -0.671860933303833 -0.5433146357536316 -1.509139060974121 
C -1.1265403032302856 0.1470169574022293 -0.3899116516113281 
O -1.9623692035675049 0.9972294569015503 -0.06461464613676071 
C 0.3822776675224304 0.2422730177640915 0.9964995384216309 
O 0.2845236659049988 1.571655511856079 1.1489213705062866 
C 1.6278116703033447 -0.2492094486951828 0.42020300030708313 
O 2.2519421577453613 0.30025213956832886 -0.4678041934967041 
H 0.3732948303222656 -0.7770512104034424 -1.6702717542648315 
H -1.4060074090957642 -0.9888916015625 -2.1878395080566406 
H -0.976669430732727 -0.8745681047439575 0.2146773487329483 
H -0.042713463306427 -0.3509500324726105 1.8236693143844604 
H -0.6557609438896179 1.8116910457611084 0.9422614574432373 
H 1.9220720529556274 -1.2861329317092896 0.7433490753173828 
