13

C -2.1506481170654297 0.03270402178168297 -0.19382034242153168 
O -1.100541591644287 -0.7301112413406372 0.4222407042980194 
C 0.1435268670320511 -0.2511446475982666 0.22756734490394592 
C 0.6608181595802307 0.8698862791061401 -0.3825371563434601 
N 2.0339341163635254 0.8888607621192932 -0.13244102895259857 
C 2.4003429412841797 -0.27385470271110535 0.5916721820831299 
N 1.2037485837936401 -0.9565958976745605 0.7503020763397217 
H -2.1779017448425293 1.056333065032959 0.20672152936458588 
H -3.080958604812622 -0.48875322937965393 0.05079811066389084 
H -2.0165584087371826 0.06537634879350662 -1.2849599123001099 
H 0.1497499793767929 1.6526201963424683 -0.9302853941917419 
H 2.82712984085083 0.07126137614250183 -0.623538613319397 
H 1.0974559783935547 -1.8381333351135254 1.242814540863037 
