16

C 1.8775372505187988 1.0706069469451904 1.5578582286834717 
C 1.1785041093826294 0.08852916955947876 0.7117224335670471 
C 1.069785714149475 -1.0067429542541504 0.083949975669384 
C -0.010065440088510513 -1.5438700914382935 -0.7364228963851929 
C -1.2337666749954224 -0.5792683959007263 -0.2695864737033844 
C -0.6589304208755493 0.7689384818077087 -0.006308967713266611 
N -2.1306653022766113 -0.11643923074007034 -1.23760187625885 
H 1.9713208675384521 2.037031888961792 1.0404690504074097 
H 2.88493013381958 0.7169785499572754 1.8165326118469238 
H 1.3222206830978394 1.2482351064682007 2.4913766384124756 
H -0.27502498030662537 -2.592226028442383 -0.5484272241592407 
H 0.16907626390457153 -1.4092848300933838 -1.8131543397903442 
H -1.6471048593521118 -1.033409595489502 0.648847222328186 
H -0.26826173067092896 1.2830116748809814 -0.8835895657539368 
H -1.1710262298583984 1.4145410060882568 0.7135169506072998 
H -3.0973541736602783 -0.2703656554222107 -0.9026737809181213 
