15

C -0.6686139106750488 0.19139596819877625 -1.692513346672058 
C 0.454091340303421 -0.5647116899490356 -1.100756049156189 
C -0.24009110033512115 -1.0942214727401733 1.338267207145691 
C -0.902587890625 0.13287635147571564 1.6828742027282715 
C -1.7402622699737549 1.017438530921936 1.8700875043869019 
C 1.732031226158142 -0.0878375694155693 -0.9128852486610413 
C 2.7792272567749023 0.574255645275116 -0.7903139591217041 
H -1.138279914855957 -0.43863508105278015 -2.476390838623047 
H -1.4438239336013794 0.5468834638595581 -0.9984229207038879 
H -0.25204452872276306 1.098987102508545 -2.1825830936431885 
H -0.0007553025498054922 -1.2404792308807373 0.1362479329109192 
H -0.8144137859344482 -2.012657642364502 1.5556180477142334 
H 0.7659868597984314 -1.1628098487854004 1.784153699874878 
H -2.174400806427002 1.8770546913146973 2.36517596244812 
H 3.643937110900879 1.1624606847763062 -0.5785587430000305 
