10

O 3.0163214206695557 0.18978752195835114 -0.2406681776046753 
C 1.860496163368225 0.26632604002952576 0.11896730959415436 
N 1.0826280117034912 1.0456925630569458 0.8294533491134644 
N -1.38827645778656 1.1043521165847778 0.46040499210357666 
C -1.4755970239639282 -0.15870705246925354 0.21850377321243286 
C -0.45247918367385864 -0.8619359731674194 -0.5939448475837708 
N 0.8098313212394714 -0.748633086681366 -0.34878596663475037 
H -0.2838979661464691 1.4039548635482788 0.4635939300060272 
H -2.3374216556549072 -0.7835736870765686 0.5305160880088806 
H -0.8316050171852112 -1.4572632312774658 -1.4380404949188232 
