13

C -1.0803930759429932 -0.34131330251693726 -0.3668777048587799 
C 0.08590012788772583 0.22996549308300018 0.3534683883190155 
C 1.3897838592529297 0.14118826389312744 -0.2541030943393707 
O 0.06408865004777908 0.09240692108869553 1.7449289560317993 
C -0.7108607292175293 1.495208501815796 -0.11000208556652069 
N -1.1311262845993042 2.5861563682556152 -0.2866182029247284 
H 0.2498897910118103 -1.9498153924942017 -0.5098944306373596 
H -2.0387535095214844 -0.4265320301055908 0.14427676796913147 
H -1.0699970722198486 -0.41020384430885315 -1.4510148763656616 
H 1.4896775484085083 0.4170406758785248 -1.3041205406188965 
H 0.9746533036231995 -1.55134117603302 -0.4721153974533081 
H 2.24884033203125 0.3111216723918915 0.39091938734054565 
H -0.4242076873779297 -0.7347090244293213 1.9321438074111938 
