13

O 1.506319522857666 -1.945937156677246 -1.2602840662002563 
C 0.5919540524482727 -1.3121886253356934 -0.6205052137374878 
N 1.5540908575057983 -0.37343794107437134 -0.19135409593582153 
C 0.35920968651771545 1.4138767719268799 0.46589770913124084 
C -0.6881552934646606 0.5816417336463928 0.7414394617080688 
C -1.4087454080581665 -0.1643475443124771 -0.3831869065761566 
N -0.703004002571106 -1.454073429107666 -0.4777015745639801 
H 1.9131286144256592 -0.6538956165313721 0.7374827861785889 
H 0.5096673369407654 1.8156318664550781 -0.5381813049316406 
H 1.070825219154358 1.7602224349975586 1.2121821641921997 
H -0.8785707950592041 0.2002657800912857 1.7515227794647217 
H -2.467137575149536 -0.3014945685863495 -0.13939446210861206 
H -1.359582543373108 0.43373599648475647 -1.2979174852371216 
