12

O -1.25880765914917 0.7428035736083984 -0.15205638110637665 
C -1.21419095993042 -0.508432149887085 0.4748506546020508 
C 0.252175509929657 -0.5737589597702026 0.31992307305336 
O 0.4334384500980377 -0.09766661375761032 -1.853835105895996 
C 0.9476407766342163 0.6225799322128296 0.8583143949508667 
O 2.0216143131256104 1.0261460542678833 0.4209968149662018 
H -0.3569784164428711 0.43661338090896606 -1.5071417093276978 
H -1.7442131042480469 -1.3179523944854736 -0.05946913734078407 
H -1.5518702268600464 -0.5074610710144043 1.5309075117111206 
H 0.8299439549446106 -1.3980332612991333 -0.09299863874912262 
H 1.2100111246109009 0.4689549505710602 -1.6538975238800049 
H 0.4287540912628174 1.1054506301879883 1.7130759954452515 
