13

C -1.9754917621612549 -0.2673790752887726 -0.010176585055887699 
C -0.7409507036209106 0.4904261827468872 -0.2901574671268463 
C -0.11549865454435349 1.275130271911621 -1.1245877742767334 
C 0.9898616671562195 0.36783114075660706 -0.9712057709693909 
C 1.8054134845733643 0.11322467774152756 0.2633481025695801 
N 0.7275364995002747 -0.7221991419792175 0.789040207862854 
H -2.8342883586883545 0.33672383427619934 -0.3400397002696991 
H -2.0890254974365234 -0.5185603499412537 1.0523489713668823 
H -1.974780559539795 -1.205698013305664 -0.582453191280365 
H 1.1721467971801758 -0.3243218660354614 -1.8064438104629517 
H 2.064706563949585 1.0263500213623047 0.8169921636581421 
H 2.7051188945770264 -0.4711090922355652 0.03205347806215286 
H 0.2994793951511383 -0.1701444834470749 1.5462284088134766 
