19

C 2.4584107398986816 -0.7086892127990723 -0.6757411360740662 
C 1.2188695669174194 -0.4783179759979248 -1.4227195978164673 
O -0.06517235189676285 -1.4727532863616943 0.4276096522808075 
C -0.259207546710968 -0.7010908722877502 1.3903989791870117 
C -0.26990339159965515 0.7998715043067932 1.184266209602356 
C -1.6521857976913452 1.067747712135315 0.774344265460968 
C -2.213219404220581 0.5241010189056396 -0.4851692020893097 
H 3.1231536865234375 -1.4115869998931885 -1.1950573921203613 
H 2.2299139499664307 -1.1293455362319946 0.3250576853752136 
H 3.0108046531677246 0.22820702195167542 -0.4873725473880768 
H 0.6782748103141785 -1.347754955291748 -1.8132036924362183 
H 0.9129343628883362 0.5006268620491028 -1.795525312423706 
H -0.29633834958076477 -1.0575520992279053 2.438688278198242 
H 0.4606427252292633 0.9821751713752747 0.3526291251182556 
H 0.019378792494535446 1.344765067100525 2.0925912857055664 
H -2.2646536827087402 1.7435626983642578 1.3581856489181519 
H -2.001821994781494 1.1504186391830444 -1.3617554903030396 
H -1.7722549438476562 -0.45862627029418945 -0.6666094064712524 
H -3.317626476287842 0.4242428243160248 -0.4406173825263977 
