12

O -2.148350954055786 -0.9785034656524658 -0.48031488060951233 
C -1.8349635601043701 -0.4039614200592041 0.546949028968811 
C -0.4909460246562958 0.2528451085090637 0.7945901155471802 
C 0.42647895216941833 0.22608160972595215 -0.42232969403266907 
C 1.8661680221557617 1.1496731042861938 0.0634194165468216 
C 2.226797342300415 -0.03987546265125275 -0.21111957728862762 
H -2.5447027683258057 -0.3317888081073761 1.408963680267334 
H -0.019907504320144653 -0.26556164026260376 1.6471787691116333 
H -0.6488227248191833 1.285359501838684 1.1428844928741455 
H 0.40957024693489075 -0.7954979538917542 -0.8450848460197449 
H 0.08480635285377502 0.8686097264289856 -1.2375807762145996 
H 2.6649844646453857 -1.0044463872909546 -0.4137668013572693 
