17

O 1.0202736854553223 -1.8591495752334595 -1.009902000427246 
C 0.2242586314678192 -1.6929268836975098 0.12429523468017578 
C -1.5518498420715332 -0.07608434557914734 -0.988138735294342 
C -1.2198621034622192 1.0814348459243774 -0.08747481554746628 
C 0.26467427611351013 1.4929332733154297 0.0064865341410040855 
C 1.105656623840332 0.5460572838783264 0.8409438729286194 
C 0.7749571800231934 -0.7396438717842102 1.1363673210144043 
H 0.44517067074775696 -1.6133778095245361 -1.771161675453186 
H 0.012929785996675491 -2.6782336235046387 0.5775071978569031 
H -0.8793218731880188 0.06665270775556564 -1.8751888275146484 
H -0.8484935164451599 -1.288920283317566 -0.06942280381917953 
H -1.752637267112732 1.9323527812957764 -0.577778697013855 
H -1.6781872510910034 0.9614064693450928 0.9125455617904663 
H 0.6787694692611694 1.5406619310379028 -1.016518235206604 
H 0.36921051144599915 2.505222797393799 0.441821813583374 
H 2.0530099868774414 0.9484679698944092 1.2137622833251953 
H 0.9814406037330627 -1.1268543004989624 2.1418559551239014 
