11

N 2.708862543106079 0.24696408212184906 0.0572303906083107 
C 3.2192115783691406 -0.7813957333564758 -0.2741377651691437 
C 0.2712407410144806 0.7369499206542969 0.2902233302593231 
C -0.6662923097610474 0.1445286124944687 -0.7428540587425232 
C -1.423938274383545 -0.4094407260417938 0.4797911047935486 
O -0.39890483021736145 0.25966352224349976 1.3308593034744263 
H 1.5754427909851074 0.8525386452674866 0.26638561487197876 
H -1.1993155479431152 0.8891373872756958 -1.348915934562683 
H -0.19205309450626373 -0.5906577110290527 -1.4041879177093506 
H -2.417694568634033 -0.007074086926877499 0.699916660785675 
H -1.381574034690857 -1.4906338453292847 0.6452851891517639 
