13

O -0.4218634068965912 -1.7309929132461548 -0.5475614070892334 
C -0.21015572547912598 -0.8985099196434021 0.3842344582080841 
C -0.054405685514211655 -1.1921823024749756 1.7335875034332275 
O 1.5809872150421143 1.7080461978912354 0.8125723004341125 
C 1.1648646593093872 1.146527886390686 -0.17078080773353577 
C -0.7047823071479797 0.31959542632102966 -1.564376711845398 
C -0.24223023653030396 0.5447512865066528 -0.17270545661449432 
H -0.6455195546150208 -0.622290313243866 2.459521532058716 
H 0.2537595331668854 -2.2003281116485596 2.028625249862671 
H 1.7537673711776733 0.8505144119262695 -1.0593913793563843 
H 0.03336849436163902 0.05163770914077759 -2.322288751602173 
H -1.6066378355026245 0.7947370409965515 -1.9539124965667725 
H -0.9011523723602295 1.2284940481185913 0.37247616052627563 
