14

O -0.1186007708311081 2.695667028427124 1.109258770942688 
C -0.8217971324920654 0.1706656962633133 0.44323623180389404 
C -1.111316442489624 -1.0336588621139526 -0.45041683316230774 
C 0.31080764532089233 -1.4767073392868042 -0.275127112865448 
C 1.253176212310791 -0.39930808544158936 -0.6122232675552368 
C 0.503065824508667 0.5215893387794495 0.3923574388027191 
H -0.22813265025615692 2.9789059162139893 0.17669735848903656 
H -1.5211743116378784 0.5855401158332825 1.1652528047561646 
H -1.3809727430343628 -0.7826752066612244 -1.4887417554855347 
H -1.8580890893936157 -1.7254976034164429 -0.04072091728448868 
H 0.5519564747810364 -2.217953681945801 0.4877121150493622 
H 1.1830883026123047 -0.04700659587979317 -1.6515165567398071 
H 2.294123888015747 -0.589384138584137 -0.3349737823009491 
H 0.8792028427124023 1.3706835508346558 1.010669469833374 
