17

O 0.4790048599243164 0.22494298219680786 -2.6326820850372314 
C -0.0016887836391106248 0.13791070878505707 -1.366896390914917 
C 0.11083519458770752 1.3146169185638428 -0.44105255603790283 
C 0.5745064616203308 0.9205338954925537 0.9824566841125488 
C -0.3676879405975342 -0.13294120132923126 1.6042336225509644 
C -0.6279058456420898 -1.2610523700714111 0.6341431140899658 
C -0.09358865022659302 -1.146732211112976 -0.7257252931594849 
H 1.1211873292922974 -0.5180619359016418 -2.756563901901245 
H -1.227137565612793 -1.5014212131500244 -0.8547216057777405 
H -0.9040639400482178 1.746670126914978 -0.38017985224723816 
H 0.7513903975486755 2.1073381900787354 -0.8694550395011902 
H 1.5838596820831299 0.49124887585639954 0.9161909818649292 
H 0.6324592232704163 1.8159903287887573 1.6134124994277954 
H -1.33013117313385 0.33542177081108093 1.8610166311264038 
H 0.051841896027326584 -0.5100269317626953 2.553860902786255 
H -1.3363935947418213 -2.0493550300598145 0.8900850415229797 
H 0.583512544631958 -1.9750827550888062 -1.0281226634979248 
