12

C -2.3107008934020996 0.16643115878105164 -0.7479872107505798 
N -0.550544798374176 -0.4292909801006317 0.3879629671573639 
C -0.30486181378364563 -0.1715652048587799 -0.7578859329223633 
N 1.670027494430542 -0.5525467395782471 -0.12453582137823105 
C 2.258629560470581 0.3328668773174286 0.7347845435142517 
O 3.1684389114379883 0.09106186032295227 1.5325385332107544 
H -2.8486838340759277 0.019758960232138634 0.1892910748720169 
H -2.2843077182769775 1.2101558446884155 -1.067927598953247 
H -2.595374822616577 -0.5563370585441589 -1.5170902013778687 
H -0.03864791989326477 0.039222970604896545 -1.7858624458312988 
H 1.9986021518707275 -1.509412169456482 0.06972208619117737 
H 1.83742356300354 1.3596535921096802 0.6188390254974365 
