11

C 1.4788285493850708 2.2480385303497314 1.2091798782348633 
C 0.8932142853736877 1.4007974863052368 0.5525861382484436 
C 0.1122400164604187 0.3686179518699646 -0.06610193848609924 
C -0.6957846879959106 -0.609649121761322 0.5514838695526123 
C -1.0512219667434692 -1.5125067234039307 -0.4404086768627167 
N -0.6816886067390442 -1.0447074174880981 -1.6651216745376587 
N 0.12786315381526947 0.16506639122962952 -1.405780553817749 
H 1.8168617486953735 2.9208571910858154 1.987299919128418 
H -1.1111294031143188 -0.5391278862953186 1.5617244243621826 
H -1.3805161714553833 -2.5463154315948486 -0.3239794969558716 
H 0.49133357405662537 -0.8510710000991821 -1.9608817100524902 
