11

O -1.99447500705719 -1.584469199180603 -0.86665278673172 
C -1.060720443725586 -0.8769621849060059 -0.5809488296508789 
N -1.0694323778152466 0.4683658182621002 -0.2621804177761078 
C 0.3271166980266571 0.9273014068603516 -0.21173758804798126 
C 1.139222264289856 -0.36158743500709534 -0.08177896589040756 
O 0.3085804879665375 -1.3551064729690552 -0.4493614733219147 
H -1.7207281589508057 0.7301440238952637 0.48940467834472656 
H 0.4849112331867218 1.6696137189865112 0.5669079422950745 
H 0.6107507348060608 1.3691961765289307 -1.1852102279663086 
H 1.8043723106384277 -0.5254871845245361 0.9223942160606384 
H 1.1704024076461792 -0.4610084891319275 1.6591637134552002 
