13

O -2.423922061920166 0.21694432199001312 0.04694097861647606 
C -1.1075137853622437 0.704677939414978 0.24474941194057465 
C -0.07339271903038025 -0.4610840678215027 0.2297373116016388 
C -0.532390296459198 -1.3302803039550781 -1.3814499378204346 
C 0.545052707195282 -0.6586028933525085 -1.6004582643508911 
C 1.2324364185333252 -0.06128234043717384 0.7609771490097046 
C 2.351491689682007 0.23285017907619476 1.1535048484802246 
H -2.3741567134857178 -0.27031397819519043 -0.8037958741188049 
H -1.051317811012268 1.1770412921905518 1.2401137351989746 
H -0.7946929335594177 1.452789068222046 -0.4924524426460266 
H -0.4778456389904022 -1.285749912261963 0.8289787173271179 
H 1.447084665298462 -0.16436780989170074 -1.9167251586914062 
H 3.259166955947876 0.4473784565925598 1.689879298210144 
