11

C -1.9406458139419556 1.2266571521759033 0.18905478715896606 
C -0.6223829388618469 0.6973364353179932 -0.20623846352100372 
C 0.3966086208820343 0.09320507198572159 -0.48347634077072144 
C 1.5554109811782837 -0.778805673122406 -0.552445113658905 
C 1.3215843439102173 -2.155848503112793 0.7690117359161377 
N 2.1216351985931396 -1.4068841934204102 1.2603025436401367 
H -2.591437339782715 0.4329723119735718 0.5892082452774048 
H -1.8213990926742554 1.983945608139038 0.9801915287971497 
H -2.436769962310791 1.6858322620391846 -0.6810817122459412 
H 1.5154993534088135 -1.5373388528823853 -1.333856463432312 
H 2.501897096633911 -0.24107155203819275 -0.5306708216667175 
