17

C -0.16301488876342773 0.8465273380279541 -2.0431830883026123 
C -0.10970946401357651 -0.31604495644569397 -1.0492370128631592 
C 1.1119041442871094 -0.32818809151649475 -0.07453819364309311 
C 0.14342494308948517 -0.23313935101032257 1.1092302799224854 
C 0.36698487401008606 0.4681035280227661 2.394719123840332 
O 0.12367499619722366 -1.292683720588684 2.126394510269165 
C -1.0745261907577515 -0.2084258794784546 0.17807893455028534 
H -0.05352732539176941 1.818410873413086 -1.538743495941162 
H 0.6421744227409363 0.7754188179969788 -2.7881877422332764 
H -1.1168431043624878 0.8575339913368225 -2.593315839767456 
H -0.21229605376720428 -1.273385763168335 -1.5684820413589478 
H 1.717238426208496 -1.241458535194397 -0.09713178128004074 
H 1.776766061782837 0.5310600399971008 -0.1601332575082779 
H 0.8755585551261902 -0.8603535294532776 2.7842063903808594 
H -0.6083477139472961 0.7932606935501099 2.7990667819976807 
H -1.6571481227874756 0.7212938070297241 0.2199864685535431 
H -1.762313961982727 -1.0579293966293335 0.3012702167034149 
