14

C 1.4341365098953247 -0.8413112759590149 0.11854514479637146 
O 1.6771637201309204 0.5290173292160034 0.5905789136886597 
C 0.3622673451900482 0.8380112648010254 0.3448832929134369 
C -0.8133524060249329 0.19644616544246674 1.0279287099838257 
C -1.1318355798721313 -0.367423951625824 -0.4081498086452484 
C -0.2897772490978241 0.815470814704895 -1.0097217559814453 
H 1.5952759981155396 -1.5371284484863281 0.94844651222229 
H 2.050448417663574 -1.0269404649734497 -0.7667465209960938 
H -1.6016051769256592 0.9245966672897339 1.274765968322754 
H -0.6197238564491272 -0.4595377743244171 1.882446527481079 
H -2.2103707790374756 -0.3352554142475128 -0.674156665802002 
H 0.1827434003353119 -1.1048688888549805 -0.29003724455833435 
H -0.9750136137008667 1.6651103496551514 -1.1544909477233887 
H 0.35152536630630493 0.6866706013679504 -1.8867460489273071 
