9

O -0.8501248359680176 0.3905261754989624 0.5316082835197449 
C 0.10465149581432343 -1.0403863191604614 0.9397864937782288 
C 1.1626986265182495 -0.6909588575363159 0.01852167770266533 
C 0.5053158402442932 0.29765474796295166 -0.563845157623291 
C 0.45276570320129395 1.40129816532135 -1.4411603212356567 
N 0.5661146640777588 2.23081111907959 -2.2630937099456787 
H -1.6779457330703735 0.18535126745700836 0.031195612624287605 
H 0.2614542245864868 -0.8614794611930847 2.0188655853271484 
H -0.5249298214912415 -1.9128170013427734 0.7281216382980347 
