15

C -1.4123245477676392 0.20270417630672455 -1.3511836528778076 
C -0.24787499010562897 -0.21620801091194153 -0.47465336322784424 
O 0.8826891183853149 -0.664318859577179 -1.2397762537002563 
C 0.14016889035701752 0.5600336194038391 0.6854162216186523 
O -0.3865692615509033 -0.664211094379425 1.9065338373184204 
C 1.613600492477417 0.6632956266403198 0.9189257025718689 
O 2.268178701400757 -0.13311009109020233 1.5759496688842773 
H -1.7863407135009766 -0.6644415259361267 -1.918947458267212 
H -2.2521731853485107 0.5845981240272522 -0.7536875009536743 
H -1.1269335746765137 0.969713568687439 -2.0910587310791016 
H -0.5741896629333496 -1.03021240234375 0.7677404284477234 
H 0.7095893621444702 -1.5916465520858765 -1.4823697805404663 
H -0.4717181324958801 1.41306734085083 0.9813068509101868 
H 0.5062240362167358 -1.030289888381958 2.1393420696258545 
H 2.087467670440674 1.5170248746871948 0.38610002398490906 
