15

C 0.3811298608779907 0.06366342306137085 -1.8596972227096558 
C 0.9833581447601318 0.39445552229881287 -0.505549430847168 
N 0.6109541654586792 1.5620914697647095 0.24361898005008698 
C 0.18353235721588135 0.20774529874324799 0.7595626711845398 
C -1.259812831878662 -0.18861883878707886 0.9123038053512573 
C 0.8466156721115112 -0.46869057416915894 1.8858622312545776 
N -0.041766177862882614 -1.3370815515518188 2.222075939178467 
H -0.6980425715446472 0.2986472547054291 -1.881257176399231 
H 0.5024948716163635 -0.9997919797897339 -2.103356122970581 
H 0.8732354640960693 0.6654040813446045 -2.6383275985717773 
H 2.0523834228515625 0.14983180165290833 -0.4169358015060425 
H -0.22930656373500824 2.002579927444458 -0.13904432952404022 
H -1.8440879583358765 -0.5822762250900269 0.07233697175979614 
H -1.822615146636963 0.3263768255710602 1.696426272392273 
H -0.5380728244781494 -2.09433650970459 1.7519811391830444 
