11

N 0.7867259979248047 1.6377713680267334 0.7485133409500122 
C 0.4086419939994812 0.4278148114681244 0.16632261872291565 
C -0.3843441903591156 -0.6184989213943481 0.670045018196106 
N -0.6684578657150269 -1.4473682641983032 -0.3579813838005066 
N 0.02834419533610344 -1.0669163465499878 -1.496559500694275 
C 0.6845855116844177 0.13179758191108704 -1.2212625741958618 
H 1.7012746334075928 1.6205805540084839 1.190403699874878 
H 0.08540032058954239 2.15022349357605 1.247473955154419 
H -0.8668599128723145 -0.7047156095504761 1.6385904550552368 
H -1.4957748651504517 -2.04654860496521 -0.4338793456554413 
H -0.27953580021858215 -0.08413995802402496 -2.1516661643981934 
