15

C -0.6361196637153625 0.3412235677242279 0.5549927949905396 
C -0.44449931383132935 -0.31683194637298584 -0.8393012881278992 
C -0.6815170049667358 -1.8414360284805298 -0.8737380504608154 
C 0.9997905492782593 0.08367080241441727 -1.1501384973526 
C 1.2348591089248657 0.5451303124427795 0.0783064141869545 
C 1.674124002456665 1.6031275987625122 0.9167811870574951 
O 0.7963559627532959 2.4467971324920654 1.3088632822036743 
H -1.6479284763336182 0.7785013914108276 0.6850875616073608 
H -0.49356067180633545 -0.3808120787143707 1.386117935180664 
H -0.133897066116333 1.6588598489761353 0.8090071678161621 
H -1.1136696338653564 0.17047205567359924 -1.5736545324325562 
H -1.7139633893966675 -2.067645788192749 -0.5630766749382019 
H 0.015560155734419823 -2.353046178817749 -0.18960265815258026 
H -0.5356405973434448 -2.2307050228118896 -1.8903177976608276 
H 2.6801061630249023 1.562694787979126 1.3406729698181152 
