16

C 1.0340827703475952 0.9260801076889038 0.8425080180168152 
C 0.1842420995235443 0.061707522720098495 -0.08870356529951096 
C 1.088389277458191 -0.7408890724182129 -1.0665539503097534 
C -0.7300426959991455 -0.9539668560028076 0.5919694304466248 
O -1.9290837049484253 -0.8453590273857117 -0.06394989043474197 
C -1.8373931646347046 0.2943287789821625 -0.8913214802742004 
N -0.7194069027900696 0.8867465853691101 -0.9443027973175049 
H 1.7364976406097412 1.5359145402908325 0.2598889172077179 
H 1.6053073406219482 0.28063616156578064 1.5228583812713623 
H 0.39134109020233154 1.5877416133880615 1.4343104362487793 
H 1.8041038513183594 -1.3506982326507568 -0.5024083852767944 
H 0.48491594195365906 -1.4022984504699707 -1.7020608186721802 
H 1.6296076774597168 -0.03641258552670479 -1.7101444005966187 
H -0.8664084672927856 -0.9059557318687439 1.818445086479187 
H -1.1066417694091797 -0.011073595844209194 2.1300783157348633 
H -2.7540910243988037 0.5277172923088074 -1.428684115409851 
