12

O 1.7572611570358276 -0.21250838041305542 0.9888806939125061 
C 0.5931693315505981 -0.6576628684997559 -0.32023894786834717 
C -0.5755959153175354 -0.670000433921814 0.5410106182098389 
C -1.2585912942886353 0.5235903859138489 -0.1708049774169922 
C 0.03712884709239006 0.5925038456916809 -1.0152246952056885 
O 0.4128349721431732 1.2521467208862305 -1.9595799446105957 
H 2.032165765762329 0.7222005128860474 0.8474574685096741 
H 1.1766176223754883 -1.4524595737457275 -0.7895463705062866 
H -1.0912163257598877 -1.5665146112442017 0.8868327140808105 
H 0.5974162220954895 -0.22776886820793152 1.3717161417007446 
H -1.511155605316162 1.4126652479171753 0.42561498284339905 
H -2.1231846809387207 0.2881559729576111 -0.8165276646614075 
