12

O 2.181614875793457 -0.2409544438123703 -1.0700350999832153 
C 1.4434094429016113 0.7219598293304443 -1.0513445138931274 
C 0.08400534093379974 0.7228515148162842 -0.3620867431163788 
C -0.37986430525779724 -0.6819420456886292 0.04802240431308746 
C -2.0879573822021484 -0.6050130724906921 0.48839622735977173 
C -1.4337959289550781 -0.6322476863861084 1.5899447202682495 
H 1.7283350229263306 1.702441692352295 -1.4973095655441284 
H 0.193996861577034 1.3496261835098267 0.542483925819397 
H -0.6671673059463501 1.1738452911376953 -1.0262877941131592 
H -0.5028918981552124 -1.3507121801376343 -0.8065280318260193 
H 0.40121695399284363 -1.1699856519699097 0.6498935222625732 
H -0.9609016180038452 -0.9898695945739746 2.4948508739471436 
