11

C 0.681333601474762 1.0829193592071533 0.5528424978256226 
C 1.0079493522644043 -0.1737767457962036 -0.1623847782611847 
O 0.22079335153102875 -0.6672931909561157 -1.4379853010177612 
C -1.0453686714172363 -0.4484426975250244 -1.117517113685608 
N -1.2779887914657593 0.033107955008745193 0.11346124857664108 
C -0.029595443978905678 -0.15017201006412506 0.912912905216217 
H -0.9911856055259705 1.1921956539154053 0.06428083032369614 
H 1.4223378896713257 1.5982136726379395 1.1753878593444824 
H 1.9773379564285278 -0.6599478125572205 -0.22068585455417633 
H -1.8164023160934448 -1.0012495517730713 -1.6614189147949219 
H -0.14921146631240845 -0.8055546283721924 1.78110671043396 
