18

C 2.534860372543335 0.6721263527870178 -0.44258221983909607 
C 1.0340083837509155 0.31419774889945984 -0.3559030294418335 
C 0.827065110206604 -1.1645152568817139 -0.38393670320510864 
N 0.48966190218925476 0.6578501462936401 0.9456672072410583 
C -0.7785594463348389 0.9547148942947388 0.8373838067054749 
C -2.108154773712158 -0.894830048084259 0.23025384545326233 
O -3.2525479793548584 -0.19476380944252014 -0.01978435553610325 
H 2.6631884574890137 1.762189269065857 -0.4251875877380371 
H 2.960930109024048 0.2833092510700226 -1.3775875568389893 
H 3.075967788696289 0.23609083890914917 0.40673062205314636 
H 0.5175551176071167 0.8387393951416016 -1.1944961547851562 
H 1.5785865783691406 -1.8040271997451782 -0.860259473323822 
H 0.28965213894844055 -1.6197562217712402 0.4424313008785248 
H -1.348030686378479 1.1466740369796753 1.7571760416030884 
H -1.207414150238037 1.3486422300338745 -0.10094233602285385 
H -1.850022792816162 -1.5158731937408447 -0.6184976696968079 
H -1.955383062362671 -1.310320258140564 1.2280833721160889 
H -3.4643681049346924 0.3602948784828186 0.7560158967971802 
