16

C 0.3007878363132477 0.3797594904899597 -1.1377407312393188 
C -0.9847849011421204 0.6301186084747314 -0.4211689829826355 
C -1.01109778881073 1.0238701105117798 0.9387474656105042 
O -0.7874811291694641 -1.1229333877563477 0.9525593519210815 
C 0.4244600832462311 -1.5373306274414062 0.48626330494880676 
C 1.2525935173034668 -0.3960726857185364 -0.18085958063602448 
H 0.7910939455032349 1.3058252334594727 -1.4842503070831299 
H 0.11680058389902115 -0.2343079000711441 -2.0338826179504395 
H -1.9432679414749146 0.3707377314567566 -0.8784428238868713 
H -1.2380272150039673 2.0278396606445312 -0.08066318929195404 
H -0.09535659849643707 1.3731461763381958 1.4178566932678223 
H -1.9326887130737305 1.0114444494247437 1.5121736526489258 
H 1.0329235792160034 -1.9835585355758667 1.3094139099121094 
H 0.3064734637737274 -2.356389284133911 -0.25554436445236206 
H 2.126310348510742 -0.7737111449241638 -0.7340580224990845 
H 1.6412609815597534 0.2815619111061096 0.5895966291427612 
