15

C -0.1279827207326889 -1.6278176307678223 0.09322255104780197 
C -0.7277011871337891 -0.4998827874660492 0.8842226266860962 
C 0.6479879021644592 1.4641133546829224 -0.07326535135507584 
C 1.9499191045761108 0.9944843649864197 -0.45132818818092346 
C 3.0455482006073 0.5404322147369385 -0.7429179549217224 
C -2.039160966873169 -0.15934181213378906 0.6101049184799194 
C -3.239697217941284 0.10562759637832642 0.44822388887405396 
H -0.496012419462204 -1.7490203380584717 -0.9393051862716675 
H 0.9686771631240845 -1.5929855108261108 0.10360416769981384 
H -0.41963857412338257 -2.5413448810577393 0.6449816823005676 
H 0.14340732991695404 0.6592556834220886 0.702509343624115 
H -0.04322453588247299 1.5850603580474854 -0.9155795574188232 
H 0.6636555194854736 2.370863914489746 0.5472487807273865 
H 4.013927936553955 0.16860699653625488 -1.0064332485198975 
H -4.2579755783081055 0.4326254427433014 0.5189325213432312 
