10

O 1.102736473083496 -1.9622286558151245 0.7133520245552063 
C -0.007456074468791485 -1.8264120817184448 0.24284756183624268 
O -0.6993477940559387 -0.660378098487854 0.2086513489484787 
C 0.0843103677034378 0.5216351747512817 0.37261849641799927 
C 0.8059180378913879 0.9552618265151978 -1.1495693922042847 
C -0.32449254393577576 1.5505638122558594 -1.1354597806930542 
H -0.6495166420936584 -2.6169426441192627 -0.19083914160728455 
H 1.0198493003845215 0.32331693172454834 0.9042463898658752 
H -0.5247787237167358 1.2032970190048218 0.9870632886886597 
H -0.8072224259376526 2.5118865966796875 -0.9529109001159668 
