16

C -1.8888299465179443 0.20323854684829712 0.7384070158004761 
C -0.6400877237319946 -0.31667304039001465 0.029285140335559845 
C 0.6082305908203125 -0.5442239046096802 0.9228718876838684 
O 1.7103195190429688 -0.6981747150421143 0.0420367531478405 
N -0.16324689984321594 0.6562678217887878 -0.9864756464958191 
C 1.0609923601150513 0.19235022366046906 -1.511836051940918 
O 2.180177927017212 0.8567702770233154 -1.488787055015564 
H -1.695771336555481 1.1714340448379517 1.2180060148239136 
H -2.729649066925049 0.3062971234321594 0.04343316704034805 
H -2.1814870834350586 -0.514215350151062 1.5235902070999146 
H -0.87896728515625 -1.2617907524108887 -0.4754979610443115 
H 0.7607076168060303 0.3093414008617401 1.6022921800613403 
H 0.4992932677268982 -1.4542256593704224 1.5362370014190674 
H 2.4282970428466797 0.19933311641216278 -0.4653628468513489 
H 0.02399470843374729 1.5581237077713013 -0.5335545539855957 
H 0.9060263633728027 -0.663853108882904 -2.1946449279785156 
