13

O 1.524705410003662 1.179032802581787 0.2501712739467621 
C 0.9509658813476562 0.059390224516391754 0.303666353225708 
C 1.2789667844772339 -1.0810562372207642 1.0570638179779053 
O -1.16414475440979 -1.180110216140747 1.2221083641052246 
C -1.407647967338562 -0.3369047939777374 0.3269863724708557 
C -0.44961392879486084 1.3265049457550049 -1.1353949308395386 
C -0.2766229212284088 -0.06138826161623001 -0.6465903520584106 
H 1.3048837184906006 -2.051162004470825 0.5536108613014221 
H 1.9226737022399902 -0.9703323245048523 1.9350093603134155 
H -2.288240432739258 0.3051663041114807 0.37723010778427124 
H -1.2497798204421997 1.9498820304870605 -0.7478898763656616 
H 0.03494570031762123 1.6630232334136963 -2.0499632358551025 
H -0.1810912787914276 -0.8020459413528442 -1.4460079669952393 
