13

C 0.4692828059196472 -1.266872525215149 0.6432172656059265 
C -0.17818716168403625 0.25815460085868835 -0.168066143989563 
C -1.4983046054840088 0.35102352499961853 -0.9411882162094116 
N -0.2857018709182739 0.1866643875837326 -1.6111252307891846 
C 0.47895342111587524 1.392728328704834 0.5052485466003418 
O 0.9859293103218079 1.339974045753479 1.6300674676895142 
H 1.471802830696106 -1.2085760831832886 0.2016465663909912 
H 0.5868541598320007 -1.196453332901001 1.7413383722305298 
H -0.00815792940557003 -2.189690351486206 0.30834928154945374 
H -1.9360145330429077 1.3516203165054321 -0.7974441647529602 
H -0.6325838565826416 -0.552792489528656 0.6336797475814819 
H -0.011855538003146648 -0.7375603914260864 -1.9743716716766357 
H 0.5579829812049866 2.271780014038086 -0.17135223746299744 
