13

O -1.4616388082504272 1.9177803993225098 0.5098575949668884 
C -0.6985914707183838 1.1110891103744507 -0.3726555407047272 
C 0.02457151561975479 0.0785539299249649 0.5072442889213562 
C -0.5542387366294861 -1.1559802293777466 0.8911499977111816 
O 0.20501112937927246 -2.04679799079895 0.3014835715293884 
C 0.9534376263618469 -0.9826200604438782 -0.5181949138641357 
C 2.079453945159912 -1.183706283569336 -1.0847023725509644 
H -1.3702397346496582 2.847348690032959 0.2348702996969223 
H -1.3685299158096313 0.578631579875946 -1.0788193941116333 
H 0.048521675169467926 1.6527727842330933 -0.9683001637458801 
H 0.7911803722381592 0.5162910223007202 1.1503278017044067 
H -1.4919955730438232 -1.3888965845108032 1.3774374723434448 
H 2.8430581092834473 -1.944466233253479 -0.9496988654136658 
