13

C -1.7372621297836304 0.4449368715286255 -0.2814493477344513 
N -0.31869855523109436 0.2536180019378662 -0.5287306308746338 
C 0.39451083540916443 -0.93377286195755 -0.19849872589111328 
C 1.7364095449447632 -0.14956389367580414 -0.15736684203147888 
C 0.7130850553512573 0.9465591907501221 0.16023841500282288 
O 0.4560287594795227 0.9652512669563293 1.4431453943252563 
H -1.9705361127853394 0.2846335470676422 0.7826982140541077 
H -2.0196878910064697 1.462079405784607 -0.5721739530563354 
H -2.300426721572876 -0.27617570757865906 -0.8874044418334961 
H 0.2446502298116684 -1.825560212135315 -0.8360018730163574 
H 0.22034084796905518 -0.2991447448730469 1.4118942022323608 
H 2.436896800994873 -0.34869253635406494 0.6539331078529358 
H 2.2244601249694824 -0.18528132140636444 -1.1417304277420044 
