10

O -0.21068836748600006 -0.8411988615989685 1.8120156526565552 
C -0.5756857991218567 -1.1255844831466675 0.6786107420921326 
N -0.3168570399284363 -0.33709967136383057 -0.4649369418621063 
C 0.9265044927597046 0.4556558132171631 -0.547847330570221 
C -0.25036606192588806 1.3643001317977905 -0.37404730916023254 
H -1.105910301208496 -2.0536887645721436 0.39086058735847473 
H 1.5926551818847656 0.25670725107192993 0.2936949133872986 
H 1.4366061687469482 0.38653871417045593 -1.5195139646530151 
H -0.43415361642837524 1.543958067893982 0.70166015625 
H -1.0621047019958496 0.35041147470474243 -0.9704964756965637 
