12

C 0.4354919195175171 -0.10245238989591599 1.3327279090881348 
C -0.3121626675128937 -0.016205329447984695 0.014755851589143276 
C 0.222141832113266 -0.25238317251205444 -1.3821401596069336 
C -0.45560726523399353 1.0233629941940308 -0.994874894618988 
H -0.19888007640838623 0.24247495830059052 2.1633739471435547 
H 1.3242653608322144 0.5463727116584778 1.2591352462768555 
H 0.7757731080055237 -1.1214956045150757 1.5538687705993652 
H -1.3213310241699219 -0.9326902627944946 0.3414628803730011 
H -0.286396861076355 -0.9416918754577637 -2.0631823539733887 
H 1.3101096153259277 -0.38842257857322693 -1.3635220527648926 
H -1.5406584739685059 -0.040006522089242935 -0.03558937832713127 
H 0.04725438728928566 1.9831370115280151 -0.8260154724121094 
