19

C -0.2219742238521576 -0.14816105365753174 1.9859507083892822 
C -0.9423443675041199 0.005325960926711559 0.6327922940254211 
C -1.9412808418273926 -1.0762417316436768 0.24270156025886536 
C -0.08736884593963623 -0.2582712173461914 -0.6204761862754822 
C 0.3585070073604584 0.9177803993225098 -1.518017292022705 
C 1.72980797290802 1.051770806312561 -0.9691580533981323 
O 2.7431063652038574 0.3788270354270935 -1.5563764572143555 
H -0.946954071521759 -0.129902645945549 2.810267925262451 
H 0.4858146607875824 0.6800946593284607 2.147784948348999 
H 0.32992395758628845 -1.0860971212387085 2.0337281227111816 
H -1.3907428979873657 0.9987738132476807 0.5955193042755127 
H -2.930838108062744 -0.7807853817939758 -0.10599512606859207 
H -1.0282007455825806 -1.0421862602233887 -1.0525606870651245 
H -1.8609631061553955 -2.0568430423736572 0.6913864016532898 
H 0.7348943948745728 -0.97978675365448 -0.4780898094177246 
H 0.3522728681564331 0.6580358147621155 -2.5790886878967285 
H -0.2533905506134033 1.8114676475524902 -1.3395854234695435 
H 1.8544797897338867 1.4337152242660522 0.04231993481516838 
H 3.0152509212493896 -0.37751632928848267 -0.9631026983261108 
