14

O -2.2345376014709473 -1.1610039472579956 0.0016857070149853826 
C -1.100593090057373 -1.370203971862793 0.35209545493125916 
C 0.20634989440441132 -1.234541416168213 -0.269223153591156 
C 0.6707684993743896 -0.06420589238405228 0.5582136511802673 
C -5.412231257651001e-05 1.2864136695861816 0.29378741979599 
C 0.20586219429969788 1.0365118980407715 -1.2347993850708008 
N 1.0311169624328613 -0.1647941917181015 -0.9583487510681152 
H 0.053617920726537704 -1.4885789155960083 1.977213740348816 
H 0.8208422064781189 -2.1337411403656006 -0.1677679568529129 
H 0.6772964596748352 -0.8401620984077454 1.7612237930297852 
H -1.052999496459961 1.4213364124298096 0.566588819026947 
H 0.6198465824127197 2.103738307952881 0.668560802936554 
H 0.8250189423561096 1.7818689346313477 -1.7670100927352905 
H -0.7225355505943298 0.8273619413375854 -1.7822200059890747 
