19

C 2.4499094486236572 -0.5183190107345581 -0.36812877655029297 
O 1.0637097358703613 -0.8100613951683044 -0.28039681911468506 
C 0.414145827293396 -0.030363036319613457 0.7025169730186462 
C 0.12019595503807068 1.445022702217102 0.33467093110084534 
C -1.0946192741394043 1.041598916053772 -0.32729601860046387 
C -1.1909912824630737 -0.27005887031555176 0.47169411182403564 
C -1.6340733766555786 -1.591781497001648 -0.14659267663955688 
H 2.9629709720611572 -0.6726309657096863 0.5990623831748962 
H 2.617687463760376 0.5227219462394714 -0.6935526728630066 
H 2.8701419830322266 -1.2078663110733032 -1.1105406284332275 
H 0.8165897727012634 -0.2683395743370056 1.706198811531067 
H 0.08125815540552139 2.146527051925659 1.1646463871002197 
H -0.17584852874279022 2.7030601501464844 -0.577856183052063 
H -1.145180583000183 0.9277698397636414 -1.4114866256713867 
H -1.2355154752731323 2.5251638889312744 -0.5732640027999878 
H -1.6698074340820312 -0.11774252355098724 1.4486896991729736 
H -2.7263576984405518 -1.6032743453979492 -0.2766501009464264 
H -1.1598995923995972 -1.7578561305999756 -1.120858073234558 
H -1.3664191961288452 -2.4349746704101562 0.5067971348762512 
