16

C -0.2258388102054596 -1.7748353481292725 0.7944504618644714 
C -0.2847597002983093 -0.2572851777076721 0.5928637385368347 
C 1.0761369466781616 0.42761388421058655 0.32768458127975464 
C -0.9887300729751587 0.24388578534126282 -0.6917709708213806 
C -0.06630494445562363 1.4707293510437012 -0.8189592957496643 
O 0.5426831841468811 1.8065671920776367 -1.970061182975769 
H 0.23712851107120514 -2.268527030944824 -0.07331724464893341 
H 0.3507804274559021 -2.0271060466766357 1.6931848526000977 
H -1.2381832599639893 -2.189194679260254 0.9263141751289368 
H -0.763136088848114 0.22227859497070312 1.4567773342132568 
H 1.212005376815796 1.2701187133789062 -0.9823881387710571 
H 1.554888129234314 0.9918167591094971 1.1475930213928223 
H 1.8006669282913208 -0.25235018134117126 -0.13853617012500763 
H -2.065523624420166 0.49283403158187866 -0.6181638836860657 
H -0.8142493963241577 -0.4284737706184387 -1.5439748764038086 
H -0.32756391167640686 2.271928071975708 -0.10169678926467896 
