15

O -2.1174139976501465 -1.2147914171218872 -0.7490136623382568 
C -0.9828193187713623 -1.0554323196411133 -0.07736480981111526 
C 1.0103718042373657 -0.7282311320304871 -0.7262724041938782 
C 1.2248600721359253 0.5342268943786621 0.04881878197193146 
C 0.5184760689735413 0.4047793447971344 1.4154990911483765 
C -0.8375506401062012 0.26291078329086304 0.6477083563804626 
C -0.15292590856552124 0.8077452778816223 -0.56036376953125 
H -2.411362648010254 -0.43682992458343506 -1.2750030755996704 
H 1.3332158327102661 -1.6820718050003052 -0.29505258798599243 
H 1.250465750694275 -0.6655620336532593 -1.7917509078979492 
H 2.0775110721588135 1.1989747285842896 -0.12230236828327179 
H 0.5489962100982666 1.34219229221344 1.9838403463363647 
H 0.817208468914032 -0.4563274383544922 2.031749725341797 
H -1.7824913263320923 0.6581160426139832 1.0472514629364014 
H -0.49654120206832886 1.0303009748458862 -1.5777440071105957 
