12

N -1.2743158340454102 1.6453543901443481 -0.7530008554458618 
C -0.9466802477836609 0.37355321645736694 -0.40121203660964966 
O -1.649249792098999 -0.5966120362281799 -0.6801757216453552 
C 0.39304375648498535 0.2454090267419815 0.3484410047531128 
O 0.4278697371482849 -0.42904606461524963 1.4886077642440796 
C 1.1057403087615967 -1.720725655555725 0.4725392758846283 
O 0.4295509159564972 -2.6898152828216553 0.4115684926509857 
H -2.210847854614258 1.9823286533355713 -0.5407418608665466 
H -0.5551187992095947 2.351736545562744 -0.8303931951522827 
H 1.1097874641418457 1.099778413772583 0.21930338442325592 
H 1.0164802074432373 -0.7625923156738281 -0.46084916591644287 
H 2.1537396907806396 -1.4993689060211182 0.725912868976593 
