10

O -1.4822499752044678 -1.6596863269805908 0.08960824459791183 
C -0.5196422338485718 -0.9410490393638611 0.2070228010416031 
C -0.06978070735931396 0.30206453800201416 -1.046329140663147 
C 0.006064933724701405 1.1369848251342773 0.10450707376003265 
O 0.8938843607902527 0.751656174659729 1.0353995561599731 
C 0.5181468725204468 -0.6483769416809082 1.1202712059020996 
H 0.8759915828704834 -0.006987533066421747 -1.4893779754638672 
H -0.837108314037323 0.4919590651988983 -1.8036940097808838 
H -0.7684817910194397 1.8543932437896729 0.39380019903182983 
H 1.3831753730773926 -1.2809579372406006 1.3887922763824463 
