10

C 0.8250249028205872 -1.3916820287704468 -0.43135714530944824 
C 0.4637070596218109 -0.00412650965154171 0.05855830758810043 
N -0.7955439686775208 0.034611500799655914 0.6975061893463135 
C -1.1718108654022217 1.284346580505371 0.7146989107131958 
N -0.9774665832519531 2.513054370880127 0.516333281993866 
O 1.1334760189056396 1.0071055889129639 -0.1665765345096588 
H 0.26081109046936035 -1.615943431854248 -1.3511631488800049 
H 1.8958361148834229 -1.4455252885818481 -0.6622647643089294 
H 0.5910040140151978 -2.1363039016723633 0.3375844955444336 
H -2.2250375747680664 1.7544631958007812 0.2866804599761963 
