15

O 1.2281779050827026 1.3287365436553955 -0.388846755027771 
C 1.61530601978302 -0.03975910320878029 -0.3671204745769501 
C 0.5398834943771362 -0.7426412105560303 0.509332537651062 
O 0.14877717196941376 0.29124632477760315 1.5068968534469604 
C -1.521833062171936 0.19651378691196442 0.5708035826683044 
C -1.1814671754837036 0.5304266810417175 -0.7459740042686462 
C -0.8158612847328186 -0.8529125452041626 -0.18767254054546356 
H 0.5847448706626892 1.1081665754318237 0.9912195205688477 
H 1.605503797531128 -0.49205973744392395 -1.374496579170227 
H 2.628148078918457 -0.13912244141101837 0.05494537204504013 
H 0.8701783418655396 -1.6444697380065918 1.0339300632476807 
H -2.333685874938965 0.30304768681526184 1.2833094596862793 
H -8.580709982197732e-05 1.1677017211914062 -0.7907285094261169 
H -1.90556800365448 0.7652334570884705 -1.5231786966323853 
H -1.2684557437896729 -1.7963550090789795 -0.497220903635025 
