8

O 0.37654587626457214 0.1986137181520462 -1.4800831079483032 
C -0.5995309948921204 -0.240411639213562 -0.34829622507095337 
C 0.15015393495559692 0.6172010898590088 0.7161857485771179 
C 0.9092946648597717 -0.3304135799407959 -0.2955594062805176 
N 0.35527461767196655 -1.5707476139068604 -0.028864294290542603 
H -1.5323880910873413 -0.6296892166137695 -0.7689487338066101 
H 0.1395387351512909 0.27810823917388916 1.7473459243774414 
H 0.20111128687858582 1.6773391962051392 0.45822009444236755 
