13

C -0.8702237606048584 -0.055247388780117035 -1.2777113914489746 
C 0.035503704100847244 0.9296367168426514 -0.5100626945495605 
C 1.102217674255371 -0.7305299043655396 0.1072145402431488 
C 0.7816858291625977 -0.052714478224515915 1.4673550128936768 
N -0.5113731622695923 0.41996973752975464 0.8140462636947632 
C -0.5154882669448853 -0.8467678427696228 -0.0335017666220665 
H -0.5014922618865967 -0.4274126887321472 -2.2419421672821045 
H -1.914292335510254 0.28169649839401245 -1.3119746446609497 
H 0.1420443058013916 2.006880760192871 -0.7026920318603516 
H 1.179107427597046 0.33346205949783325 -0.6678368449211121 
H 1.4243624210357666 0.7572755217552185 1.830014705657959 
H 0.5659605860710144 -0.797615110874176 2.2575793266296387 
H -0.9180120229721069 -1.818634033203125 0.2695115804672241 
