17

C -2.1459765434265137 -0.1285468190908432 -0.13202911615371704 
C -1.2335251569747925 0.9008915424346924 -0.6380984783172607 
C -0.18852533400058746 -0.17888440191745758 -0.40866225957870483 
C 0.088719941675663 -1.1689492464065552 -1.3279134035110474 
C 2.0230069160461426 -0.4150749742984772 0.6130809187889099 
C 1.6391081809997559 0.9628497958183289 0.9828927516937256 
C 0.6078692078590393 -0.15494757890701294 0.8580254912376404 
H -2.6757819652557373 -0.7868651151657104 -0.8162979483604431 
H -2.33276629447937 -0.2519356906414032 0.9311313629150391 
H -1.3859970569610596 1.170642614364624 -1.6887699365615845 
H -1.0938432216644287 1.7788844108581543 0.00032520570675842464 
H 0.7966378331184387 -1.9548969268798828 -1.0911041498184204 
H -0.4685502350330353 -1.240349531173706 -2.265458583831787 
H 2.7181482315063477 -1.1144835948944092 1.071295976638794 
H 1.6410603523254395 1.7469955682754517 0.21439528465270996 
H 1.8345369100570679 1.348171353340149 1.9914636611938477 
H 0.0667482540011406 -0.4874533414840698 1.754662275314331 
