11

N 1.9537267684936523 0.16121633350849152 -1.7217072248458862 
C 1.1096041202545166 0.3028888404369354 -2.5832302570343018 
C 0.7775858044624329 -0.4659375846385956 0.3243752419948578 
C -0.166793555021286 0.42841005325317383 1.1143330335617065 
C -1.2612966299057007 -0.28108060359954834 0.24067553877830505 
O -0.18066883087158203 -1.176673173904419 -0.26715466380119324 
H 1.7313508987426758 -0.016560232266783714 -0.38621604442596436 
H -0.2413145750761032 0.16400110721588135 2.17252516746521 
H -0.06161860004067421 1.4957574605941772 0.9572237133979797 
H -2.0149266719818115 -0.8883996605873108 0.7558780908584595 
H -1.645648717880249 0.27637746930122375 -0.6067025065422058 
