15

C 1.6661908626556396 1.0699946880340576 0.2916743755340576 
C 0.20669911801815033 0.6798900961875916 0.18073797225952148 
C -0.164427250623703 -1.2290362119674683 0.7114378809928894 
C -1.3341044187545776 -1.0287585258483887 1.6783922910690308 
N -0.6192212104797363 0.08013268560171127 1.836620569229126 
N -0.09832102805376053 -0.5302049517631531 -0.517001748085022 
C -1.271985411643982 -0.5452577471733093 -1.3982001543045044 
H 1.9894269704818726 1.5865397453308105 -0.6237691640853882 
H 2.3027169704437256 0.1769031584262848 0.41877204179763794 
H 1.8121318817138672 1.728011131286621 1.1587767601013184 
H -0.5137999057769775 1.4840755462646484 0.09001005440950394 
H 0.7213510870933533 -1.7772856950759888 1.045702338218689 
H -1.1348756551742554 0.16897372901439667 -2.209613561630249 
H -2.1916561126708984 -0.30821800231933594 -0.8426013588905334 
H -1.3701261281967163 -1.555759310722351 -1.820938229560852 
