12

O 1.3463191986083984 2.0575990676879883 0.5027704238891602 
C 0.5582104325294495 1.0601755380630493 0.28283292055130005 
N 1.2385904788970947 0.014199408702552319 -0.12983116507530212 
C 0.37204286456108093 -1.1205638647079468 -0.4922240674495697 
C -1.0304027795791626 -0.6217290163040161 -0.10519322007894516 
O -1.1696693897247314 -0.31678739190101624 1.2896101474761963 
C -0.9157039523124695 0.7774319648742676 0.37940654158592224 
H 2.1395761966705322 1.008285641670227 0.08748173713684082 
H 0.6377143859863281 -2.032529830932617 0.061718542128801346 
H 0.4242858588695526 -1.3377708196640015 -1.5698996782302856 
H -1.9237958192825317 -1.0132158994674683 -0.5966835618019104 
H -1.6876455545425415 1.5405532121658325 0.29389333724975586 
