12

O -0.8599137663841248 -0.4385683536529541 2.0934934616088867 
C -0.6164014935493469 -1.008779525756836 1.0517152547836304 
C -0.9274739027023315 -0.18581335246562958 -0.6756282448768616 
C 0.6419768929481506 -0.551005482673645 0.13739512860774994 
C 0.19250236451625824 0.7208733558654785 -0.8276705145835876 
C 0.19905468821525574 2.018515110015869 -0.15305081009864807 
N 0.16280071437358856 3.0653092861175537 0.35968098044395447 
H -1.0397182703018188 -1.978918433189392 0.7553829550743103 
H -0.9349337816238403 -0.9534558057785034 -1.4531071186065674 
H 1.1545861959457397 -1.3795288801193237 -0.3832114040851593 
H 1.2735085487365723 -0.036498118191957474 0.8675621151924133 
H 0.7540121674537659 0.7278701663017273 -1.77256178855896 
