11

N 1.9625295400619507 -0.5763412117958069 -0.09260499477386475 
C 0.7425041794776917 -0.09631330519914627 -0.414031058549881 
N 0.1768619418144226 0.7830881476402283 -1.246183156967163 
N -1.0606991052627563 1.0057085752487183 -0.5924301147460938 
C -1.2222800254821777 0.4233766198158264 0.584449291229248 
C -0.1798214614391327 -0.5949152112007141 0.6638458967208862 
H 1.1481643915176392 -0.8328632712364197 1.0977696180343628 
H 2.4698853492736816 -1.051676869392395 -0.8538676500320435 
H -1.6585077047348022 1.6960350275039673 -1.0252673625946045 
H -1.814550518989563 0.8728654384613037 1.3841608762741089 
H -0.5640868544578552 -1.6289640665054321 0.49415868520736694 
