11

N -2.017435073852539 -0.3223676085472107 0.27916526794433594 
C -0.7775987386703491 0.049618616700172424 -0.08541610836982727 
N -0.07522318512201309 -1.1162387132644653 -0.18447862565517426 
N 1.2514461278915405 -0.8089627623558044 0.12704671919345856 
C 1.3808766603469849 0.5654341578483582 0.033822644501924515 
C 0.13737067580223083 1.1526687145233154 -0.09975234419107437 
H -2.813147783279419 0.18618173897266388 -0.11799696832895279 
H -1.2019777297973633 -1.5719343423843384 0.22532512247562408 
H 1.949281096458435 -1.4356423616409302 -0.26591217517852783 
H 2.3613317012786865 1.0229312181472778 0.12579591572284698 
H -0.10214973986148834 2.2073824405670166 -0.05216442048549652 
