11

N 0.6415899395942688 1.868919849395752 1.984250783920288 
C 0.4536994993686676 0.7692463397979736 1.5937483310699463 
C 0.504164457321167 -0.4208017885684967 0.8394051194190979 
C -0.6752737760543823 -0.9054209589958191 0.09717855602502823 
O -0.49756962060928345 -0.5387850403785706 -1.387716293334961 
C 0.1330997496843338 0.6066962480545044 -1.4649895429611206 
H 1.3095730543136597 -1.1365889310836792 1.0203815698623657 
H -0.7661858797073364 -1.990922212600708 0.04283815622329712 
H -1.6239393949508667 -0.44821760058403015 0.41313478350639343 
H 0.03464158624410629 1.3538461923599243 -0.6672715544700623 
H 0.4862003028392792 0.8420279026031494 -2.4709599018096924 
