13

C -1.0177383422851562 -0.6502437591552734 0.34279757738113403 
C -0.14702652394771576 0.3035137355327606 -0.3893434405326843 
O -0.4596579670906067 0.741105318069458 -1.6815919876098633 
C -0.02579490654170513 1.1399474143981934 0.8177233338356018 
O 1.06864595413208 0.7543419003486633 1.3714550733566284 
C 1.3303799629211426 -0.16114681959152222 -0.18949289619922638 
O 1.4680917263031006 -1.4801682233810425 -0.20628562569618225 
H 0.474043607711792 -1.779992699623108 -0.3199083209037781 
H -0.6644580960273743 -1.15223228931427 1.2552050352096558 
H -2.095372200012207 -0.5286111235618591 0.22939220070838928 
H -1.3840774297714233 0.4590146839618683 -1.847657322883606 
H -0.70145583152771 1.9206472635269165 1.2000105381011963 
H 2.1544198989868164 0.43382447957992554 -0.5823040008544922 
