13

C -0.5607706904411316 1.914915680885315 -0.47732338309288025 
C -0.477185994386673 0.5201257467269897 0.051694829016923904 
N -0.3266117572784424 -1.7703684568405151 -0.6081109642982483 
C 0.7011743187904358 -1.7004988193511963 0.3183489441871643 
C 0.7748334407806396 -0.07660099864006042 0.3733552098274231 
O 1.8260513544082642 0.46676450967788696 0.6927794218063354 
H -1.5772148370742798 2.31139874458313 -0.40455392003059387 
H 0.12679694592952728 2.559777021408081 0.10312101989984512 
H -0.261587530374527 1.951711654663086 -1.525559425354004 
H -1.3813096284866333 -0.03602105751633644 0.3087656795978546 
H -1.154229998588562 -2.1142473220825195 -0.09990260750055313 
H 1.6952567100524902 -1.9623130559921265 -0.08950302749872208 
H 0.6147974729537964 -2.0646438598632812 1.3568882942199707 
