13

O 0.36917373538017273 1.5472586154937744 1.3517849445343018 
C -0.8299062252044678 1.0560344457626343 0.7629373669624329 
C -0.6374252438545227 0.5804497003555298 -0.6449291706085205 
O -0.10026536136865616 -1.28209388256073 -1.7282010316848755 
C 0.7926296591758728 -1.5536879301071167 -0.8816471099853516 
N 0.9322360754013062 -0.8580167293548584 0.24551038444042206 
H 0.9762468338012695 0.7727171778678894 1.2153719663619995 
H -1.554042100906372 1.890816330909729 0.7316545248031616 
H -1.2932164669036865 0.2675536274909973 1.375823974609375 
H -1.553663969039917 0.2387695014476776 -1.131792426109314 
H 0.07830639183521271 1.1458141803741455 -1.241776466369629 
H 1.4790675640106201 -2.405988931655884 -1.0833152532577515 
H 1.340859055519104 -1.3996258974075317 1.0285781621932983 
