11

O -1.663334846496582 1.6275964975357056 0.7479564547538757 
C -0.7619273066520691 0.6961439847946167 0.38259464502334595 
N -1.0087260007858276 -0.3932257890701294 -0.27980566024780273 
C 0.2855181097984314 -0.959644615650177 -0.40259072184562683 
O 0.4026295840740204 -1.9754000902175903 -1.3336069583892822 
C 1.3870171308517456 -0.09377235919237137 0.05714067444205284 
N 0.5781579613685608 0.8920440673828125 0.6496244072914124 
H -2.289077043533325 1.7354226112365723 -0.00782543420791626 
H 1.3345868587493896 -1.902317762374878 -1.642003059387207 
H 0.8084609508514404 -1.2921454906463623 0.6316840052604675 
H 0.926694393157959 1.6652992963790894 1.1968317031860352 
