17

C -2.0866241455078125 -0.1130877137184143 0.24884101748466492 
C -0.7283867597579956 -0.037928640842437744 -0.4479246437549591 
C 0.2120000123977661 1.0378459692001343 0.17767760157585144 
C 0.9699126482009888 -0.5764740109443665 0.88993239402771 
C 2.0463950634002686 0.509344220161438 -0.09454648196697235 
O 2.3914384841918945 -0.548066258430481 0.7313135266304016 
C 0.1691332310438156 -1.2875652313232422 -0.22885924577713013 
H -1.9553550481796265 -0.371001273393631 1.308973789215088 
H -2.6238760948181152 0.844599187374115 0.18625998497009277 
H -2.7149176597595215 -0.8863752484321594 -0.21671025454998016 
H -0.8720508813858032 0.16465026140213013 -1.5188037157058716 
H 0.4154014587402344 1.8395614624023438 -0.5544352531433105 
H -0.12465544790029526 1.5153205394744873 1.1027984619140625 
H 2.017097234725952 0.28619852662086487 -1.1653010845184326 
H 2.5186915397644043 1.4497827291488647 0.19718819856643677 
H -0.3668424189090729 -2.1621973514556885 0.1677676886320114 
H 0.7109676003456116 -1.6024789810180664 -1.1392558813095093 
