11

N -0.6636338829994202 2.200648069381714 1.7388229370117188 
C -0.19725657999515533 1.4528493881225586 0.9849398732185364 
C 0.39056068658828735 0.5324102640151978 0.03963353484869003 
C -0.3500012755393982 -0.07353197038173676 -1.1619852781295776 
O 0.33390510082244873 -1.2620820999145508 -0.982555091381073 
C 0.6642590165138245 -0.9672974944114685 0.3570842146873474 
H 1.3692508935928345 0.9053647518157959 -0.3099518120288849 
H -1.6499882936477661 -0.6995038390159607 0.1474057286977768 
H -0.3576887845993042 0.31227418780326843 -2.184201240539551 
H -1.220963954925537 -1.0695555210113525 0.7336529493331909 
H 1.681557059288025 -1.3315761089324951 0.6371541619300842 
