12

O -2.598905563354492 1.0737584829330444 -0.17701609432697296 
C -1.8303793668746948 0.16395750641822815 0.06683502346277237 
C -0.40310239791870117 0.18642844259738922 -0.42236918210983276 
C 0.5779764652252197 0.8523632287979126 0.5111029744148254 
N 1.820986032485962 0.34863853454589844 0.17876440286636353 
C 1.649026870727539 -0.7979798913002014 -0.3980996608734131 
O 0.22120589017868042 -1.1865540742874146 -0.2266157865524292 
H -2.1037495136260986 -0.7098668217658997 0.7069490551948547 
H -0.2913481891155243 0.4015509784221649 -1.5004768371582031 
H 0.4703330993652344 1.8767338991165161 0.8533485531806946 
H 0.14736595749855042 -0.8502159714698792 0.9410359263420105 
H 2.317706823348999 -1.6494542360305786 -0.44764935970306396 
