19

C -2.0380988121032715 1.1037724018096924 0.47286126017570496 
C -1.3306525945663452 0.3269711136817932 -0.6422373652458191 
C -0.41017839312553406 -0.7842593789100647 -0.1690945327281952 
C 0.2262077033519745 -1.6056725978851318 -1.2854866981506348 
C 1.409208059310913 -0.9514772891998291 -0.7848283052444458 
C 2.3372738361358643 -0.2962177097797394 -0.253014475107193 
C 2.6291234493255615 0.579611599445343 0.7671800255775452 
H -2.6321680545806885 0.4267260432243347 1.1042567491531372 
H -1.3182178735733032 1.6239922046661377 1.1176989078521729 
H -2.721653699874878 1.8527361154556274 0.04879195988178253 
H -2.0964748859405518 -0.12234920263290405 -1.3043590784072876 
H -0.7558993697166443 1.0194693803787231 -1.2772411108016968 
H -0.7776578664779663 -1.4008551836013794 0.6543733477592468 
H 0.37871140241622925 0.17777946591377258 1.0161798000335693 
H 0.18766337633132935 -2.695564031600952 -1.1588033437728882 
H -0.08390957862138748 -1.3275107145309448 -2.3033366203308105 
H 1.093430519104004 0.5846118927001953 1.3080358505249023 
H 2.773306369781494 1.6390700340270996 0.5413346290588379 
H 3.143439531326294 0.21493689715862274 1.6592319011688232 
