16

C 0.5349015593528748 -2.3019115924835205 -0.1751149594783783 
C 0.9915513396263123 -0.8584110736846924 -0.2861875593662262 
C 1.2251393795013428 -0.10176807641983032 0.8769828081130981 
N -0.4102284610271454 1.237217903137207 0.22582510113716125 
C -1.3516488075256348 2.3522586822509766 0.0873694121837616 
C -0.5385245084762573 0.24992503225803375 -0.6095944046974182 
O -1.2836247682571411 -0.23548316955566406 -1.4261709451675415 
H 0.03677010163664818 -2.601400136947632 -1.097568154335022 
H -0.16259798407554626 -2.4297478199005127 0.6569119691848755 
H 1.3942904472351074 -2.965487003326416 0.018527919426560402 
H 1.5794306993484497 -0.6145843863487244 -1.1720843315124512 
H 0.7979306578636169 -0.41822803020477295 1.8296256065368652 
H 1.9522407054901123 0.7018703818321228 0.8895953297615051 
H -1.590218186378479 2.569984197616577 -0.9683791995048523 
H -2.2870068550109863 2.157982110977173 0.6308315396308899 
H -0.8884053230285645 3.2577836513519287 0.5194298624992371 
