12

N -0.9022301435470581 2.8880455493927 0.6381705403327942 
C -0.5936873555183411 1.763994812965393 0.5295010805130005 
C -0.1668480932712555 0.37420108914375305 0.29233548045158386 
C 1.19862961769104 0.11817632615566254 -0.38310739398002625 
C 0.03767150640487671 -1.5035896301269531 0.4864063858985901 
C -1.00862455368042 -0.7295032143592834 -0.3611172139644623 
O -0.005789277143776417 -0.47573360800743103 1.4906691312789917 
H 1.268865704536438 0.2678171396255493 -1.4641053676605225 
H 2.0800747871398926 0.374144047498703 0.2084202915430069 
H 1.1297672986984253 -1.3950672149658203 -0.0638432428240776 
H -1.0086843967437744 -0.8264687061309814 -1.4522956609725952 
H -2.007405996322632 -0.8361274600028992 0.07539398968219757 
