19

C -2.493558168411255 0.301068514585495 0.4346943497657776 
C -1.0715277194976807 0.026166781783103943 -0.01197898294776678 
C -0.7602527141571045 -0.6459258198738098 -1.2275899648666382 
O 0.726870596408844 -1.525362253189087 0.04076182097196579 
C 1.2964999675750732 -0.3060252368450165 0.45346325635910034 
C 2.4862818717956543 0.09303350746631622 -0.4188743531703949 
C 0.12937122583389282 0.8061636090278625 0.47096121311187744 
H -3.173923969268799 -0.5004609823226929 0.10970031470060349 
H -2.872976541519165 1.2472470998764038 0.017642052844166756 
H -2.549220085144043 0.3736884891986847 1.5296127796173096 
H -0.5822116732597351 -1.1039695739746094 0.421581506729126 
H -1.4369149208068848 -1.417383074760437 -1.6055902242660522 
H 0.042928535491228104 -0.3571864068508148 -1.903957486152649 
H 1.6432605981826782 -0.4327172338962555 1.4943146705627441 
H 3.2448112964630127 -0.7007996439933777 -0.4125088155269623 
H 2.9431402683258057 1.0252833366394043 -0.05414629355072975 
H 2.1731648445129395 0.2540914714336395 -1.4607478380203247 
H 0.3997327387332916 1.640663504600525 -0.19287054240703583 
H -0.032890383154153824 1.2149537801742554 1.4781666994094849 
