11

C 2.62857985496521 -0.5151451230049133 0.06024238467216492 
C 1.446149230003357 -0.20576399564743042 -0.046637699007987976 
C 0.08577721565961838 0.08958449959754944 -0.19178539514541626 
C -0.948000431060791 -0.7876685857772827 0.32596978545188904 
N -2.19596791267395 -0.44565287232398987 0.31220462918281555 
N -1.006208896636963 2.151458263397217 -1.3998063802719116 
C -0.3461805582046509 1.4148708581924438 -0.6705050468444824 
H 3.6624433994293213 -0.788301408290863 0.11056485772132874 
H -0.5572043657302856 -1.7534306049346924 0.6846987009048462 
H -2.7785143852233887 -1.2292165756225586 0.6358172297477722 
H 0.06528882682323456 1.9879605770111084 0.21903400123119354 
