16

C -0.5268625617027283 1.942195177078247 0.4182218015193939 
C -0.5352006554603577 0.44512739777565 0.307152658700943 
C 0.481773316860199 -0.36500853300094604 -0.21162229776382446 
C 1.9105548858642578 0.02047986537218094 -0.48293668031692505 
C -0.07657328248023987 -1.637681484222412 -0.42295506596565247 
C -1.2972692251205444 -1.6639330387115479 0.28504064679145813 
N -1.6070805788040161 -0.29048335552215576 0.7407703995704651 
H -1.490024447441101 2.3047640323638916 0.7982656955718994 
H 0.26095154881477356 2.2736754417419434 1.1155805587768555 
H -0.3272835612297058 2.4154818058013916 -0.5518502593040466 
H 2.5688881874084473 -0.2835131585597992 0.34418538212776184 
H 2.299590587615967 -0.4667825698852539 -1.3867710828781128 
H 2.027172327041626 1.1085290908813477 -0.6106081008911133 
H 0.3048165440559387 -2.4514687061309814 -1.0355615615844727 
H -1.7634130716323853 -2.476238965988159 0.845783531665802 
H -2.2300400733947754 -0.8751427531242371 -0.1526954472064972 
