11

C 2.003643035888672 0.48204565048217773 0.6997487545013428 
C 0.7686842679977417 0.7307689785957336 0.41632458567619324 
C 0.49089446663856506 -0.2133900225162506 -0.6610893607139587 
N -0.592546820640564 -1.1448588371276855 -0.5100297331809998 
C -1.5750137567520142 -0.08399408310651779 -0.5829663276672363 
C -1.4517440795898438 0.82731032371521 0.4500952661037445 
N -0.5182260274887085 1.2154582738876343 1.1704856157302856 
H 2.7899158000946045 0.3839951753616333 1.434200406074524 
H 0.9699801206588745 -0.1727365404367447 -1.6327309608459473 
H -0.602505624294281 -1.7071764469146729 0.34565794467926025 
H -2.325805425643921 -0.08648248761892319 -1.3681710958480835 
