13

C 2.071932792663574 -0.32592418789863586 0.10790678858757019 
C 0.5675663352012634 -0.2654036283493042 0.06781238317489624 
C -0.2499038428068161 -0.2681024372577667 -1.084397554397583 
N -1.6264206171035767 0.05739797279238701 -0.6154301762580872 
C -1.3966954946517944 0.27481433749198914 0.7075378894805908 
O -2.3124537467956543 0.7981187701225281 1.5553947687149048 
N -0.18634329736232758 -0.055567823350429535 1.1689943075180054 
H 2.398364782333374 -0.5581312775611877 1.1314489841461182 
H 2.446655035018921 -1.1087740659713745 -0.5609428882598877 
H 2.522629737854004 0.6301327347755432 -0.19049781560897827 
H -0.15638944506645203 -0.821718692779541 -2.020437240600586 
H -0.9250988364219666 0.8375516533851624 -1.2858737707138062 
H -3.153843402862549 0.8056066632270813 1.0184845924377441 
