15

C 0.2389073371887207 2.1962392330169678 -0.11808935552835464 
C -0.7411574721336365 1.1192675828933716 -0.6041972041130066 
N -0.47434964776039124 -0.16713742911815643 0.02617524191737175 
C 0.4709894359111786 -0.9360277056694031 -0.5006319880485535 
C 0.9781631827354431 -1.9591543674468994 0.29607120156288147 
N -0.21721093356609344 -3.038867473602295 0.6253330707550049 
C -0.7514392733573914 -2.071103811264038 1.1433626413345337 
H 0.0860777422785759 3.13999605178833 -0.6590986251831055 
H 1.28213632106781 1.8930515050888062 -0.2631170451641083 
H 0.09168735146522522 2.373812198638916 0.9566400051116943 
H -1.778375506401062 1.4081543684005737 -0.36023709177970886 
H -0.6803969144821167 1.0106176137924194 -1.708491563796997 
H 0.806510329246521 -0.8635522127151489 -1.5511161088943481 
H 1.8942015171051025 -2.3256237506866455 0.6306446194648743 
H -1.2057433128356934 -1.7796709537506104 2.08675217628479 
