15

C -1.8523766994476318 0.15987944602966309 -0.6332558989524841 
C -0.7418167591094971 -0.5643565058708191 0.058631837368011475 
O -0.42772939801216125 0.39953726530075073 1.6565937995910645 
C 0.5947504043579102 -0.20678426325321198 -0.5801640748977661 
O 0.8501802086830139 1.2094558477401733 -0.7395994663238525 
C 1.6140742301940918 -0.860394299030304 0.36644017696380615 
O 2.2956817150115967 -0.08476495742797852 1.0672472715377808 
H -2.032820701599121 -0.3664501905441284 -1.5859856605529785 
H -2.784024238586426 0.10508562624454498 -0.04865395277738571 
H -1.6450093984603882 1.2162238359451294 -0.8746984601020813 
H -0.6284048557281494 -0.6062313318252563 1.5842387676239014 
H 0.44228994846343994 0.8172142505645752 1.4659816026687622 
H 0.678555428981781 -0.6582291126251221 -1.5849617719650269 
H 1.7470852136611938 1.3515182733535767 -0.3526996672153473 
H 1.8895652294158936 -1.9117040634155273 0.2008858025074005 
