17

C 1.9453905820846558 0.032968129962682724 0.040363848209381104 
C 0.42119866609573364 0.0043393634259700775 0.007411676924675703 
C -0.3892247676849365 -0.9325283169746399 0.9740380644798279 
C -1.4821820259094238 -0.9924655556678772 -0.11189016699790955 
C -0.3504134714603424 -0.756037712097168 -1.1320010423660278 
C -1.6132789850234985 1.3150871992111206 0.07714861631393433 
C -0.28509554266929626 1.3541730642318726 0.10756038129329681 
H 2.348917245864868 0.629793107509613 -0.7909926176071167 
H 2.31235671043396 0.4642185866832733 0.9835772514343262 
H 2.3474085330963135 -0.9857937097549438 -0.046272046864032745 
H -0.6513936519622803 -0.5801733136177063 1.9787187576293945 
H 0.09190551191568375 -1.922129511833191 1.03572416305542 
H -2.1824591159820557 0.09124337136745453 -0.035581208765506744 
H -0.5783495306968689 -0.23722602427005768 -2.0705952644348145 
H 0.1346636563539505 -1.7226063013076782 -1.3436627388000488 
H -2.3662140369415283 2.1000328063964844 0.12891913950443268 
H 0.3060692548751831 2.2682688236236572 0.19769389927387238 
