11

N 0.7596340179443359 -2.3417463302612305 0.016933133825659752 
C 1.1429067850112915 -1.1770612001419067 0.04796212539076805 
C 1.178134799003601 0.09671110659837723 -0.6950165629386902 
O 0.14150826632976532 0.815945029258728 -0.9828152656555176 
C -1.1365371942520142 0.5161449313163757 -0.35129514336586 
C -1.0515450239181519 0.5143762826919556 1.139957070350647 
N -1.12265145778656 0.9195241928100586 2.226255416870117 
H 2.1771316528320312 0.4465675950050354 -0.9985324144363403 
H 1.191152572631836 -0.549075722694397 1.0467249155044556 
H -1.4111703634262085 -0.47915729880332947 -0.7160405516624451 
H -1.8685641288757324 1.2377712726593018 -0.7341328263282776 
