13

C 0.9063764214515686 -1.5831557512283325 0.05439326539635658 
C 0.41425850987434387 -0.43296435475349426 -0.8191142082214355 
C 0.14819301664829254 0.8820197582244873 -0.08920036256313324 
C -1.3052903413772583 0.542214035987854 0.06546076387166977 
N -2.297136068344116 1.0018082857131958 0.6172706484794617 
O -1.0042743682861328 -0.41600754857063293 -1.0961300134658813 
H 0.873750627040863 -2.5123860836029053 -0.5293024182319641 
H 0.263691246509552 -1.6956021785736084 0.93310546875 
H 1.93625807762146 -1.4139983654022217 0.39873892068862915 
H 1.0103480815887451 -0.3088805079460144 -1.7347031831741333 
H 0.5036373734474182 1.817273497581482 -0.5075778961181641 
H -0.31229522824287415 2.0619935989379883 1.3613513708114624 
H -1.137516975402832 2.0576863288879395 1.345707654953003 
