10

N 0.23426778614521027 -1.4212276935577393 0.8643335700035095 
C -0.31528422236442566 -0.5140170454978943 0.012046338059008121 
N -0.8679392337799072 -0.47560614347457886 -1.208183765411377 
C 0.12395079433917999 0.5322319865226746 -1.1162035465240479 
N -0.13947628438472748 1.8929437398910522 -0.7299627065658569 
N -0.49653539061546326 1.837407112121582 0.4796541631221771 
N -1.0372307300567627 0.9452728033065796 1.1207554340362549 
H 0.8703528046607971 -2.105092763900757 0.43222469091415405 
H 0.5413153171539307 -1.0508918762207031 1.761192798614502 
H 1.0865790843963623 0.3589796721935272 -1.6158571243286133 
