12

O -1.8850618600845337 0.11023584008216858 1.9894219636917114 
C -1.2182605266571045 0.30940181016921997 1.0375232696533203 
C 0.6793242692947388 0.1374634951353073 1.0857205390930176 
C 1.1343228816986084 0.10321983695030212 -0.24632300436496735 
C -0.6938090920448303 -0.2676565945148468 -1.4622873067855835 
O -0.7460360527038574 0.42991864681243896 -2.4578750133514404 
H -1.1890017986297607 -0.011968876235187054 -0.3827528655529022 
H 0.7769803404808044 1.0700234174728394 1.6554008722305298 
H 0.7994579076766968 -0.757947564125061 1.702010989189148 
H 1.578375220298767 -0.7885180711746216 -0.669531524181366 
H 1.346088171005249 1.0409809350967407 -0.7662819623947144 
H -0.582379937171936 -1.375152826309204 -1.4850257635116577 
