13

C -1.0811645984649658 -0.5193166732788086 1.172493577003479 
C -0.4597240686416626 -0.7777033448219299 -0.18137486279010773 
N -0.7964522242546082 0.15013070404529572 -1.2483950853347778 
C 0.6189823150634766 0.11390626430511475 -0.7733439803123474 
C 1.1038131713867188 1.2784678936004639 -0.02013355679810047 
O 2.4254326820373535 1.4731342792510986 -0.07004746794700623 
H -1.1535062789916992 0.558243453502655 1.3537551164627075 
H -0.4791213572025299 -0.9751508235931396 1.9706357717514038 
H -2.090894937515259 -0.9534777998924255 1.208024263381958 
H -0.3276425302028656 -1.8339028358459473 -0.4409097731113434 
H -0.8341682553291321 -0.33507415652275085 -2.1505002975463867 
H 1.3776483535766602 -0.38432615995407104 -1.3935905694961548 
H 1.7564566135406494 2.190138339996338 0.5798527002334595 
