11

C 0.07683109492063522 0.6456444263458252 -1.2070025205612183 
C -1.1356371641159058 0.014189556241035461 -0.12864099442958832 
C -0.34469592571258545 -0.00238447031006217 1.0387187004089355 
C 0.7823187112808228 -0.9680571556091309 1.1107134819030762 
N 1.3167468309402466 -1.5739558935165405 0.16183485090732574 
O -2.2227702140808105 -0.08172251284122467 -0.6527279615402222 
H -0.22960510849952698 1.686216950416565 -1.2926474809646606 
H -0.12108414620161057 0.03739902377128601 -2.0930893421173096 
H 1.141823172569275 0.5697267055511475 -0.9388705492019653 
H -0.5107859969139099 0.6496520042419434 1.881197452545166 
H 1.2468585968017578 -0.9767086505889893 2.120514392852783 
