15

C 0.632737398147583 -1.8743388652801514 1.1273711919784546 
O 1.053484559059143 -1.2563037872314453 -0.7847096920013428 
C 0.31783363223075867 -0.20232941210269928 -0.6744366884231567 
N -0.10859213769435883 0.07199373841285706 0.5275660157203674 
C -0.7443474531173706 1.3047815561294556 0.9716092944145203 
C -0.031911686062812805 0.6381771564483643 -1.8947649002075195 
H 1.7146074771881104 -1.8458516597747803 1.2852281332015991 
H 0.05156987905502319 -1.6228845119476318 2.015901565551758 
H 0.23404774069786072 -2.752521514892578 0.6116889715194702 
H -0.07492467761039734 1.8614808320999146 1.663213849067688 
H -1.0271248817443848 1.9915318489074707 0.15793557465076447 
H -1.6574078798294067 1.0670901536941528 1.5468500852584839 
H 0.25627684593200684 0.13071230053901672 -2.804334878921509 
H 0.4948422610759735 1.61427640914917 -1.8290749788284302 
H -1.111090898513794 0.8741860389709473 -1.9200433492660522 
