12

C -0.6296077370643616 0.840247631072998 -0.30235034227371216 
C -0.12672798335552216 -0.25215694308280945 -1.213271975517273 
C 0.6307679414749146 -1.1823376417160034 -0.6098242402076721 
C 0.9576894640922546 -1.0568486452102661 0.8518509268760681 
O 1.3678045272827148 0.33738866448402405 1.028062343597412 
C -0.031557969748973846 0.5283303260803223 1.0763776302337646 
H -0.31052425503730774 1.8474115133285522 -0.6238861680030823 
H -1.7309577465057373 0.8509851098060608 -0.23321226239204407 
H -0.44449517130851746 -0.3083401620388031 -2.257680892944336 
H 1.003801703453064 -2.0889670848846436 -1.0931435823440552 
H -0.3476417660713196 -0.616965115070343 1.4143030643463135 
H -0.33855101466178894 1.1012523174285889 1.962775468826294 
