19

C 0.8119626045227051 -0.733738899230957 -1.5515509843826294 
C -0.5003749132156372 -0.09019593894481659 -1.106307029724121 
O -0.8800166249275208 1.0392463207244873 -1.9195410013198853 
C -0.5740782022476196 0.3650595545768738 0.3688738942146301 
C 0.395293653011322 1.4547057151794434 0.7389621138572693 
C 0.5824766159057617 0.47677314281463623 1.8808048963546753 
C -0.24631202220916748 -1.2166796922683716 1.2621124982833862 
H 0.8670135140419006 -0.7185043692588806 -2.648078441619873 
H 1.6888697147369385 -0.21469570696353912 -1.1488984823226929 
H 0.8805368542671204 -1.7845121622085571 -1.248041033744812 
H -1.3334441184997559 -0.7920909523963928 -1.2660362720489502 
H -0.2062740921974182 1.736199140548706 -1.7178417444229126 
H -1.5868902206420898 0.5916001200675964 0.7097628116607666 
H 1.263175129890442 1.5527108907699585 0.07742275297641754 
H -0.10200926661491394 2.4098496437072754 0.9383482336997986 
H -0.1951608657836914 0.750241219997406 2.63628888130188 
H 0.7107897400856018 -1.7060537338256836 1.0555968284606934 
H -0.5412642359733582 -1.420478343963623 2.2915849685668945 
H -1.0342931747436523 -1.6994361877441406 0.6465364098548889 
