15

O 1.9969656467437744 -0.6495864391326904 -1.1160950660705566 
C 0.6637694835662842 -0.20323306322097778 -1.0791566371917725 
C 0.42417052388191223 1.1542744636535645 -0.3783877193927765 
C 0.3736550509929657 -0.45588403940200806 1.1239557266235352 
O -0.22414427995681763 -0.6469427943229675 2.3145205974578857 
C -1.3612408638000488 0.12998539209365845 -0.006706156302243471 
C -0.3505382835865021 -0.9293429851531982 -0.1303601711988449 
H 2.2579259872436523 -0.6644067168235779 -0.1783766895532608 
H 0.2841357886791229 -0.2151430994272232 -2.1140222549438477 
H -0.10493320226669312 1.9258538484573364 -0.9626498818397522 
H 1.2509428262710571 1.6105258464813232 0.1813584566116333 
H -0.8511367440223694 0.08935929834842682 2.553088426589966 
H -1.9915428161621094 0.2633226215839386 0.8712228536605835 
H -1.7845395803451538 0.5935385823249817 -0.8924233913421631 
H -0.5834891200065613 -2.0023210048675537 -0.18596817553043365 
