9

C 0.49384433031082153 1.3736392259597778 -0.7199749946594238 
C -0.8325449228286743 1.2871986627578735 -0.7705367207527161 
C -0.32856500148773193 -0.03472021222114563 -0.3568587303161621 
C -0.3414660096168518 -0.9816233515739441 0.7739462852478027 
O -0.6344295144081116 -1.3218921422958374 -0.6553928852081299 
H 1.2665537595748901 1.9963362216949463 -0.21136042475700378 
H 1.01215398311615 0.13269831240177155 -0.6293468475341797 
H 0.5784267783164978 -1.459240198135376 1.1263703107833862 
H -1.2139735221862793 -0.9923965930938721 1.443153738975525 
