10

O 0.12223701179027557 0.5926126837730408 -2.824669599533081 
C -7.67537858337164e-06 1.526828408241272 -1.877135157585144 
C -0.597440242767334 -1.8033326864242554 2.2240121364593506 
N -0.6529485583305359 -0.5874297022819519 2.106180191040039 
N -0.7442636489868164 0.3870205581188202 1.200617790222168 
C 0.282185822725296 0.394195020198822 0.3050059676170349 
N 0.15152257680892944 1.4266594648361206 -0.6240090727806091 
H 1.0859006643295288 0.4089052081108093 -2.9677066802978516 
H -0.9183452129364014 -2.688551425933838 1.6948370933532715 
H 1.271159291267395 0.3430923521518707 0.7628675699234009 
