16

C -2.3489551544189453 -0.18882794678211212 -0.9518510103225708 
C -0.17003382742404938 0.4804602563381195 -0.8909706473350525 
O -0.2298637181520462 1.5682450532913208 -0.04763241857290268 
C 0.3049008548259735 -0.7360814213752747 -0.138906329870224 
C 1.845663070678711 -0.7640921473503113 0.00801838655024767 
O 2.5197067260742188 -1.7363170385360718 -0.3152705729007721 
N 2.3641197681427 0.362702876329422 0.5856215357780457 
H -2.414024829864502 -0.049078479409217834 0.1285502314567566 
H -2.4226415157318115 -1.2388641834259033 -1.251339077949524 
H -3.061629056930542 0.45061609148979187 -1.489713430404663 
H -1.1425048112869263 0.29528477787971497 -1.5740450620651245 
H -0.3776734471321106 2.3566741943359375 -0.6053727269172668 
H -0.1236744299530983 -0.8004423975944519 0.878684401512146 
H 0.025852134451270103 -1.6380894184112549 -0.6902464628219604 
H 3.3715062141418457 0.4492468237876892 0.6570176482200623 
H 1.7796308994293213 1.1799570322036743 0.7242205142974854 
