14

C 1.4338245391845703 -0.3447475731372833 -0.682009220123291 
C 0.09275215119123459 -0.007112483028322458 -0.06953725218772888 
C -0.9484255313873291 -1.054762363433838 0.5109082460403442 
C -1.171705961227417 -0.3409343659877777 -0.6941452026367188 
O -1.4706342220306396 1.3618935346603394 1.0056869983673096 
C -0.15038549900054932 1.319748878479004 0.6886382102966309 
H 1.391106367111206 -1.2619259357452393 -1.2854036092758179 
H 2.1881041526794434 -0.49232614040374756 0.104754738509655 
H 1.77717924118042 0.47463563084602356 -1.3313307762145996 
H -0.8865145444869995 -2.1452949047088623 0.5364580154418945 
H -1.3679847717285156 -0.5198046565055847 1.3964605331420898 
H -1.545605182647705 -0.5896711349487305 -1.6863771677017212 
H 0.5099091529846191 1.501530408859253 1.5675625801086426 
H 0.15242815017700195 2.0736000537872314 -0.07386711239814758 
