14

O 3.089651346206665 -0.19808463752269745 1.195261001586914 
C 2.1968994140625 -0.3534705936908722 0.16464181244373322 
C 1.0834976434707642 -1.1974105834960938 0.22263449430465698 
C -0.17211775481700897 -1.0752276182174683 0.22756773233413696 
C -0.963840901851654 0.08096252381801605 0.24356064200401306 
C -2.256676197052002 0.43322181701660156 -0.4009121060371399 
N -2.0532054901123047 0.5103787183761597 1.0598485469818115 
H 2.6162915229797363 -0.4090039134025574 2.0251870155334473 
H 1.1658668518066406 0.9319080710411072 0.11423224955797195 
H 2.7143049240112305 -0.20702864229679108 -0.7864962816238403 
H 0.21414585411548615 1.0097583532333374 0.14694562554359436 
H -2.8433432579040527 -0.3900299370288849 -0.8180565237998962 
H -2.3875784873962402 1.3968570232391357 -0.8953782320022583 
H -2.4901304244995117 -0.25409960746765137 1.5820820331573486 
