13

O 2.993718385696411 0.11715444177389145 -0.7697574496269226 
C 1.8641085624694824 0.501114547252655 -0.677346408367157 
N 0.6512052416801453 0.061361074447631836 -0.29355135560035706 
C -0.27064600586891174 1.1602981090545654 -0.4919548034667969 
C -1.401541829109192 -0.5542404055595398 0.33861297369003296 
C -0.06912913918495178 -1.176485538482666 0.23322144150733948 
H 0.9073147773742676 1.779192328453064 -0.9143186807632446 
H -0.563731849193573 1.7683836221694946 0.36238670349121094 
H -0.8885782361030579 1.1660456657409668 -1.3903112411499023 
H -1.7594724893569946 -0.22265112400054932 1.310976505279541 
H -2.164016008377075 -0.7944995760917664 -0.39953482151031494 
H 0.014847027137875557 -1.9853216409683228 -0.5039427280426025 
H 0.3910045623779297 -1.488301157951355 1.17911696434021 
