6

N 0.7998677492141724 -0.10405649244785309 0.035214558243751526 
C -0.5045835971832275 -0.15032656490802765 -0.07408230006694794 
O -0.9823951721191406 1.0304285287857056 0.13992175459861755 
H 0.3503572344779968 1.1492348909378052 0.2725355625152588 
H 1.4198477268218994 -0.9095183610916138 -0.06911958754062653 
H -1.1420739889144897 -1.0101699829101562 -0.3073119819164276 
