16

C -2.3259267807006836 0.34411749243736267 0.31534484028816223 
C -0.8860801458358765 -0.02204742468893528 0.4752725660800934 
O -0.6976362466812134 -1.3687891960144043 0.698725700378418 
C 0.6433743238449097 0.322591096162796 -1.252544641494751 
C 1.9467002153396606 0.1875242292881012 -0.5671470761299133 
O 2.073418378829956 -0.9617525935173035 0.23471377789974213 
H -2.926804542541504 0.09160833060741425 1.2122371196746826 
H -2.4285988807678223 1.4222935438156128 0.1329408884048462 
H -2.775750160217285 -0.19827765226364136 -0.5307449102401733 
H -0.2513890266418457 0.6512373685836792 1.069724202156067 
H 0.272663950920105 -1.5057309865951538 0.7518808841705322 
H 0.08241646736860275 1.2577210664749146 -1.2333307266235352 
H 0.15828266739845276 -0.5671862363815308 -1.6480313539505005 
H 2.416337728500366 1.1056270599365234 -0.20592914521694183 
H 1.5671175718307495 0.43169036507606506 -2.0320932865142822 
H 3.0198874473571777 -1.1763944625854492 0.32446691393852234 
