16

C 0.051728736609220505 1.879678726196289 -0.09394720941781998 
C -0.30627408623695374 0.483022004365921 -0.33099302649497986 
C 0.8868801593780518 -0.30232736468315125 -0.9272715449333191 
O 0.6657964587211609 -1.3977209329605103 -1.6915879249572754 
N -0.933732271194458 -0.17896825075149536 0.8462086319923401 
C -1.3313978910446167 -1.4781163930892944 0.8370413184165955 
O -1.5407218933105469 -2.1359002590179443 -0.19118565320968628 
H 0.4481184184551239 2.4645705223083496 -0.9307309985160828 
H -0.14333099126815796 2.3707170486450195 0.8512727618217468 
H 1.6828850507736206 0.9984685778617859 0.8906604051589966 
H -1.0819814205169678 0.40970373153686523 -1.1105960607528687 
H 1.7135015726089478 0.31340548396110535 -1.2965770959854126 
H 1.8685522079467773 0.26407599449157715 0.821790337562561 
H -0.06299982219934464 -1.9084703922271729 -1.2354379892349243 
H -0.41445469856262207 0.09838899224996567 1.700840711593628 
H -1.5025697946548462 -1.880527377128601 1.8605130910873413 
