13

N 1.2167634963989258 1.6041799783706665 0.36242225766181946 
C 0.09353119134902954 1.063311219215393 0.8812204003334045 
C -0.16702745854854584 -0.7598239183425903 0.10031859576702118 
N -1.3861573934555054 -0.9542693495750427 -0.486477255821228 
C 1.0025737285614014 -0.7157565951347351 -0.9204673171043396 
N 1.2220401763916016 -1.8112391233444214 -1.4094003438949585 
H 0.9800727367401123 2.3085103034973145 -0.31774768233299255 
H 1.5715556144714355 0.284648060798645 -0.8725241422653198 
H 0.175265371799469 0.7006756663322449 1.9243905544281006 
H -0.9096521139144897 1.4581013917922974 0.6561610102653503 
H 0.10884475708007812 -1.430910348892212 0.9248788952827454 
H -2.019822359085083 -1.6340062618255615 -0.07177233695983887 
H -1.8879880905151367 -0.11342077702283859 -0.7710025906562805 
