18

C 1.4058932065963745 -1.0851209163665771 0.4506784975528717 
C 0.41260623931884766 -0.159201979637146 1.1099598407745361 
N -1.358482837677002 0.009618382900953293 0.513518750667572 
C -1.44212007522583 -0.8828164339065552 -0.6532397866249084 
C -0.15366923809051514 1.2585798501968384 0.504309892654419 
O -0.4046866297721863 2.117222309112549 1.3500125408172607 
C 0.251899391412735 1.5785250663757324 -0.9398411512374878 
H 1.3062914609909058 -1.1526570320129395 -0.6410858035087585 
H 1.3410546779632568 -2.1083521842956543 0.8595932126045227 
H 2.4185328483581543 -0.7152130603790283 0.6683411598205566 
H 0.5873600244522095 0.05580548569560051 2.1575984954833984 
H -0.7580106854438782 -0.632052481174469 1.4070801734924316 
H -0.5890569090843201 -1.0098662376403809 -1.3288958072662354 
H -2.2737438678741455 -0.48110705614089966 -1.2580389976501465 
H -1.7539695501327515 -1.9002989530563354 -0.315542608499527 
H -0.6535391211509705 1.902387261390686 -1.4878435134887695 
H 0.7300506234169006 0.765720784664154 -1.4877469539642334 
H 0.9335907101631165 2.438826322555542 -0.9088580012321472 
