14

C -0.13730305433273315 -0.9754208326339722 -0.8399514555931091 
C -0.8762462735176086 0.07969629019498825 0.019318293780088425 
C -0.14525814354419708 1.3457423448562622 -0.4089356064796448 
C 1.281800389289856 -0.4276120960712433 -0.6594371199607849 
O 1.1545166969299316 0.5132119655609131 0.6782729029655457 
C -0.054272960871458054 0.006557541899383068 1.3175755739212036 
H -0.4470937252044678 -0.9139297008514404 -1.9002649784088135 
H -0.34090757369995117 -2.001948833465576 -0.48254677653312683 
H -1.9680933952331543 0.06055080145597458 0.06595388054847717 
H 0.03697971627116203 1.5297589302062988 -1.4755499362945557 
H -0.2464074343442917 2.2427725791931152 0.20920594036579132 
H 2.0076253414154053 -1.209196925163269 -0.3677518963813782 
H 0.10351413488388062 -0.9861953258514404 1.7562488317489624 
H -0.3688536286354065 0.7360131740570068 2.087862491607666 
