16

C 0.3088975250720978 1.5256696939468384 -1.0534614324569702 
C 1.3969074487686157 0.7377700805664062 -0.4039313495159149 
C -0.4262084364891052 0.3537355065345764 1.831455111503601 
O -1.1422587633132935 -0.46290409564971924 0.9643558263778687 
C -0.41273364424705505 -1.2331064939498901 0.17294088006019592 
O 0.8370451927185059 -1.1276718378067017 -0.032574065029621124 
N -1.1473180055618286 -2.117420196533203 -0.5786678194999695 
H -0.15764902532100677 2.2497751712799072 -0.3814409375190735 
H -0.47242456674575806 0.8641456365585327 -1.443004846572876 
H 0.7171885967254639 2.072664976119995 -1.9263134002685547 
H 1.8095619678497314 1.1224992275238037 0.522688090801239 
H 2.1066744327545166 0.265092134475708 -1.0814875364303589 
H -1.1033258438110352 0.8084003329277039 2.565601110458374 
H 0.5438182353973389 -0.01407731045037508 2.1807000637054443 
H -0.703675389289856 -2.9848597049713135 -0.8268143534660339 
H -2.1544995307922363 -2.0597128868103027 -0.5100452303886414 
