13

C -1.6059125661849976 1.2014102935791016 0.281088650226593 
C -0.37738093733787537 0.3874867558479309 0.0653989166021347 
O 0.8262546062469482 1.022101640701294 0.009174761362373829 
C 1.9031338691711426 0.02362583577632904 -0.13228219747543335 
O 3.057056427001953 0.3759046196937561 -0.2500152885913849 
C 1.2649263143539429 -1.2858078479766846 -0.052018892019987106 
C -0.2189093828201294 -0.9840351343154907 -0.1955818086862564 
H -1.9358240365982056 1.68855619430542 -0.6438671350479126 
H -2.4097137451171875 0.5497287511825562 0.6384223103523254 
H -1.454715371131897 1.9845752716064453 1.0393484830856323 
H 0.29501083493232727 -1.1567007303237915 -1.2553101778030396 
H 1.6774779558181763 -2.1026694774627686 0.5397571921348572 
H -1.0214041471481323 -1.7041758298873901 -0.04411492496728897 
