10

C -0.7001102566719055 -0.012780005112290382 1.177119255065918 
C 0.3373223543167114 -0.19597692787647247 0.09727934747934341 
C 0.09312701970338821 0.059207212179899216 -1.2682478427886963 
O -0.787175714969635 0.4213782846927643 -2.004776954650879 
H -1.597957730293274 0.45060884952545166 0.7626498937606812 
H -0.30897414684295654 0.6303970813751221 1.9746654033660889 
H -0.9733669757843018 -0.9809998273849487 1.623187780380249 
H 1.1619539260864258 -0.8788428902626038 0.3351474106311798 
H 1.4839997291564941 0.49657508730888367 -0.9228913187980652 
H 1.291182041168213 0.010433166287839413 -1.7741332054138184 
