11

N -1.9753230810165405 0.8240426182746887 0.8008469343185425 
C -1.3026933670043945 -0.13314224779605865 0.23240353167057037 
O 0.014744529500603676 -0.5467613935470581 0.8312177062034607 
C 0.7446371912956238 -0.319729208946228 -0.3301028311252594 
C 2.075979471206665 0.31348296999931335 -0.05116008222103119 
O 2.8839797973632812 0.511185348033905 -0.9307593703269958 
H -2.976543664932251 0.7420147061347961 0.5968408584594727 
H -1.6988708972930908 -1.0744136571884155 -0.16737616062164307 
H 0.6978205442428589 -1.0267257690429688 -1.166831612586975 
H -0.7359426617622375 0.2598430812358856 -0.8564280867576599 
H 2.272212505340576 0.45020347833633423 1.0413490533828735 
