15

O -2.1049857139587402 -1.3427915573120117 0.8815694451332092 
C -1.2717347145080566 -0.346394419670105 0.493766188621521 
C 0.001780709601007402 0.1122324988245964 1.2176082134246826 
C 0.5470273494720459 0.5874851942062378 -0.16993001103401184 
O 0.9156987071037292 1.9527186155319214 -0.11155897378921509 
C 1.481735348701477 -0.2820225954055786 -0.8708012700080872 
C -0.7907153367996216 0.14457322657108307 -0.8051441311836243 
H -1.5632836818695068 -2.175201654434204 0.917477011680603 
H -1.7407546043395996 0.7505202293395996 -0.23566991090774536 
H -0.16352513432502747 0.9010187387466431 1.9682809114456177 
H 0.5373550057411194 -0.749701201915741 1.6539890766143799 
H 1.6471302509307861 2.0836617946624756 -0.7492430210113525 
H 1.7107186317443848 -1.2898038625717163 -0.5146978497505188 
H 1.7607038021087646 -0.0088253328576684 -1.8913540840148926 
H -0.9671508073806763 -0.33746954798698425 -1.784291386604309 
