9

C -1.8584288358688354 -0.6677420735359192 0.33469846844673157 
N -1.71353280544281 -0.6528947949409485 1.5778217315673828 
C 2.4327192306518555 -0.19123096764087677 -0.3385755121707916 
N 1.3574548959732056 0.35371750593185425 -0.35619133710861206 
C 0.12470943480730057 0.8714480400085449 -0.2163754254579544 
N -0.9357109665870667 0.13734588027000427 -0.36889418959617615 
H -2.5920422077178955 -1.1889301538467407 -0.29438620805740356 
H 3.0717062950134277 -0.5145191550254822 -1.1667200326919556 
H 0.12155494093894958 1.9563857316970825 -0.039085496217012405 
