13

C -0.766539990901947 0.5387971997261047 -1.7658605575561523 
C -0.06082401052117348 -0.016351111233234406 -0.5754222273826599 
O 1.2874863147735596 0.1289290338754654 -0.43413668870925903 
C 1.6941872835159302 -0.3761062026023865 0.9053713083267212 
O 2.845449209213257 -0.6320821046829224 1.1430870294570923 
C 0.45477619767189026 -0.4099479019641876 1.6730674505233765 
C -0.6149054169654846 -0.5181400775909424 0.6398221850395203 
H -0.0688381940126419 0.8958147764205933 -2.5257346630096436 
H -1.3822588920593262 -0.25125834345817566 -2.213414430618286 
H -1.4321905374526978 1.3603774309158325 -1.4817460775375366 
H -0.789753258228302 0.4842583239078522 1.23470938205719 
H 0.34447264671325684 -0.0687832310795784 2.7013356685638428 
H -1.5110620260238647 -1.1355077028274536 0.6989219784736633 
