14

C -1.4448899030685425 -0.9909557104110718 0.12471111863851547 
C -0.8201383948326111 0.33349940180778503 -0.24895884096622467 
O -0.9652885794639587 0.6714876890182495 -1.5704317092895508 
C 0.9421984553337097 0.11994542181491852 1.1569639444351196 
C 1.7983020544052124 0.900201678276062 0.24963587522506714 
O 1.0738462209701538 -0.11640362441539764 -0.45623573660850525 
H -1.5569446086883545 -1.0610007047653198 1.2098474502563477 
H -0.8485645055770874 -1.837695837020874 -0.24005797505378723 
H -2.4440364837646484 -1.063995122909546 -0.3303382992744446 
H -1.0002843141555786 1.1930580139160156 0.38148587942123413 
H -0.6514401435852051 -0.06746742874383926 -2.1236519813537598 
H 1.495469331741333 -0.6966257095336914 1.6387569904327393 
H 1.552274227142334 1.9454805850982666 0.03030266799032688 
H 2.869497060775757 0.6704713106155396 0.1779705137014389 
