10

N 0.004147781990468502 -1.9821683168411255 1.996314525604248 
C -0.24116787314414978 -0.8435819745063782 1.6168409585952759 
C 0.10467500239610672 0.14429037272930145 0.6822968125343323 
C 1.2643535137176514 -0.2937840223312378 -0.06203920766711235 
O 0.9426473379135132 -0.024631068110466003 -1.3859678506851196 
C 0.002882067346945405 1.0167468786239624 -1.368153691291809 
C -0.6963566541671753 0.9950867891311646 -0.19462759792804718 
H 0.3235710561275482 -2.203819513320923 0.9761037826538086 
H -0.17861054837703705 1.5405508279800415 -2.3055260181427 
H -1.5261421203613281 1.651309847831726 0.04475792497396469 
