16

C -1.072365403175354 0.6564316749572754 -1.4568427801132202 
C -0.8331787586212158 -0.5777620673179626 -0.6693264245986938 
N -1.8165037631988525 0.48050346970558167 -0.19927188754081726 
C -0.8537673950195312 0.7731739282608032 0.9207295775413513 
C 0.1569029688835144 -0.31336671113967896 0.4555474519729614 
C 1.6362110376358032 -0.08463701605796814 0.14972186088562012 
C 0.8277651071548462 -1.2535834312438965 1.389897346496582 
H -1.7060606479644775 0.5715531706809998 -2.3423187732696533 
H -0.31351250410079956 1.443284273147583 -1.5009119510650635 
H -1.2002537250518799 -1.5627801418304443 -0.9769655466079712 
H -1.3115687370300293 0.5089451670646667 1.8822410106658936 
H -0.4819216728210449 1.8105480670928955 0.9751378893852234 
H 1.9622355699539185 0.9391264915466309 0.3094520568847656 
H 1.9406163692474365 -0.49735066294670105 -0.8197013735771179 
H 0.8864567279815674 -2.216843605041504 0.8432612419128418 
H 2.178945541381836 -0.6772425770759583 1.039350152015686 
