19

C 1.5137673616409302 1.2617287635803223 -0.011643772944808006 
C 0.6839650273323059 -0.029015816748142242 0.09373196959495544 
C 1.4858449697494507 -1.247799038887024 -0.4031148850917816 
C -0.6272035241127014 0.10656498372554779 -0.6497059464454651 
C -1.7940834760665894 -0.7743341326713562 -0.28967371582984924 
C -2.2156083583831787 0.48026737570762634 0.4816804826259613 
O -1.8177928924560547 0.32623621821403503 1.7943120002746582 
H 0.9577489495277405 2.121087074279785 0.3903692662715912 
H 2.4572153091430664 1.1725060939788818 0.5455031991004944 
H 1.7615472078323364 1.4806352853775024 -1.0614640712738037 
H 0.43183112144470215 -0.1962631195783615 1.1535518169403076 
H 2.4126322269439697 -1.3639883995056152 0.17839425802230835 
H 1.762668251991272 -1.1276413202285767 -1.4611822366714478 
H 0.9015504121780396 -2.1731462478637695 -0.3075926601886749 
H -0.5727729797363281 0.4243314266204834 -1.6973212957382202 
H -2.4612948894500732 -1.0474722385406494 -1.112497329711914 
H -1.555172324180603 -1.6371879577636719 0.34011411666870117 
H -1.3089247941970825 1.1956406831741333 -0.1980508416891098 
H -1.9923678636550903 1.1838994026184082 2.225646495819092 
