14

C 2.0305752754211426 0.18757393956184387 1.21968412399292 
C -0.13592438399791718 -0.011522869579494 -0.09215022623538971 
C 0.6049429178237915 -1.1181533336639404 -0.6147147417068481 
O 1.8540881872177124 -1.1620042324066162 -0.5638896822929382 
C -1.6161904335021973 -0.03160667419433594 -0.03422805666923523 
O -2.2146732807159424 -1.084453821182251 0.20860517024993896 
N -2.2369041442871094 1.0427167415618896 -0.6897749900817871 
H 1.6888229846954346 1.2148680686950684 1.3334991931915283 
H 3.0597009658813477 0.02749619074165821 0.9108323454856873 
H 1.6191112995147705 -0.5344862937927246 1.9113589525222778 
H 0.3237926959991455 0.9601622223854065 -0.30432799458503723 
H 0.033339183777570724 -1.9633839130401611 -1.039253830909729 
H -1.7673466205596924 1.4644476175308228 -1.4872647523880005 
H -3.243335247039795 1.0083463191986084 -0.7583756446838379 
