10

C -1.2776546478271484 0.23407886922359467 -0.29919734597206116 
C -0.04465815797448158 -0.4723890721797943 -0.5743424296379089 
O 0.6241503953933716 -0.5806862115859985 -1.6581319570541382 
C 0.9483153820037842 0.2715564966201782 0.5806471109390259 
H -1.771180272102356 0.022718101739883423 0.657267153263092 
H -0.17212209105491638 -1.484834909439087 -0.006947624497115612 
H -1.840823769569397 0.7653912305831909 -1.0683122873306274 
H 1.856029987335205 -0.3313544690608978 0.6001792550086975 
H 0.49527740478515625 0.3027534484863281 1.5773239135742188 
H 1.1826659440994263 1.272766351699829 0.1915138214826584 
