16

C 1.523544430732727 -0.8619062304496765 -0.22897568345069885 
C 0.4915398061275482 -0.20542721450328827 0.6933660507202148 
C 0.6852433085441589 1.3086342811584473 0.8406324982643127 
C -0.945680558681488 1.0773956775665283 -0.7510287761688232 
C -0.9479613304138184 -0.1904366910457611 0.11288761347532272 
O -1.343465805053711 -1.2892154455184937 -0.7026443481445312 
H 1.3180617094039917 -1.9340342283248901 -0.3556582033634186 
H 1.5136154890060425 -0.39881205558776855 -1.2248032093048096 
H 2.532700300216675 -0.7405884265899658 0.18584653735160828 
H 0.5043901205062866 -0.6942986845970154 1.6827119588851929 
H -0.06645979732275009 1.6324057579040527 1.6036946773529053 
H -0.05394614860415459 1.7762552499771118 -0.33653271198272705 
H -1.8821486234664917 1.6434330940246582 -0.7871989607810974 
H -0.5610283017158508 0.875473141670227 -1.7576922178268433 
H -1.651286005973816 -0.047772448509931564 0.9515911936759949 
H -1.4931325912475586 -2.0533857345581055 -0.11410537362098694 
