16

C 0.9664946794509888 -1.7474174499511719 -0.18974582850933075 
C 1.2072224617004395 -0.2981439232826233 -0.5481218099594116 
O 0.6492408514022827 0.25216343998908997 -1.5581952333450317 
C 0.019873613491654396 0.7851697206497192 1.2782058715820312 
N -0.8248522877693176 1.458471655845642 0.51332688331604 
C -1.6996169090270996 0.6687060594558716 -0.42946094274520874 
O -1.9651798009872437 -0.5132917761802673 -0.08601099997758865 
H -0.08915926516056061 -2.0006825923919678 -0.35960423946380615 
H 1.24612295627594 -1.9632902145385742 0.8539763689041138 
H 1.5803570747375488 -2.3753578662872314 -0.8529487252235413 
H 2.0792019367218018 0.1863904595375061 -0.08435989916324615 
H -0.7482361197471619 0.687034010887146 -1.2366771697998047 
H 0.805813729763031 1.327096700668335 1.800635814666748 
H -0.2638610005378723 -0.20727965235710144 1.6228303909301758 
H -0.5305303335189819 2.372310161590576 0.156305730342865 
H -2.432891845703125 1.3681219816207886 -0.8801560997962952 
