11

C 2.0566530227661133 -0.14158056676387787 0.1567326933145523 
C 1.613205909729004 0.712816059589386 0.9906956553459167 
C 0.3785995543003082 0.42629116773605347 -0.2644561529159546 
C -0.8177492022514343 -0.16760192811489105 0.5022327303886414 
C -2.0141797065734863 -0.22000956535339355 -0.3443528711795807 
N -2.9474036693573 -0.24525126814842224 -1.0496591329574585 
H 2.5572450160980225 -0.8704600930213928 -0.4618641436100006 
H 0.22016753256320953 1.4650543928146362 -0.564268946647644 
H 0.5037164092063904 -0.13634689152240753 -1.208023190498352 
H -0.5713055729866028 -1.1823372840881348 0.8444433212280273 
H -1.0183234214782715 0.43660199642181396 1.3965330123901367 
