17

O 1.8458443880081177 -0.0830000787973404 2.078977108001709 
C 0.6045500636100769 -1.1416890621185303 0.8650645017623901 
C 0.7671499252319336 0.09817805886268616 0.26393407583236694 
C -0.3019631803035736 1.1367453336715698 0.28686314821243286 
C -1.0869072675704956 1.054813027381897 -1.0671393871307373 
O -1.4992693662643433 -0.28395703434944153 -1.2137277126312256 
C -0.3889985978603363 -1.1668317317962646 -1.1827036142349243 
H 1.1595542430877686 0.40206241607666016 2.616657257080078 
H 1.3131576776504517 -1.958536982536316 0.7531288862228394 
H -0.27514752745628357 -1.3362524509429932 1.484419822692871 
H 1.65933096408844 0.31532251834869385 -0.3191237449645996 
H 0.10843860357999802 2.155733108520508 0.39420178532600403 
H -1.0140715837478638 0.966674268245697 1.106021761894226 
H -1.994802713394165 1.6778582334518433 -1.054677128791809 
H -0.4413113296031952 1.381449818611145 -1.9038347005844116 
H 0.2873724400997162 -1.0199624300003052 -2.04034686088562 
H -0.7429271936416626 -2.1986076831817627 -1.0677146911621094 
