12

O -2.182905912399292 -1.5877327919006348 -0.5806710720062256 
C -1.1490710973739624 -1.0913420915603638 -0.3726959228515625 
C -0.5948854088783264 0.029946355149149895 1.0828925371170044 
C 0.3993147909641266 0.8999612927436829 0.5821924805641174 
C 1.0621827840805054 -0.04911080002784729 -1.1021908521652222 
O 1.794182538986206 0.5655279755592346 -1.8621454238891602 
H -0.11381491273641586 -0.16933098435401917 -1.2958967685699463 
H -0.3300359845161438 -0.7356788516044617 1.8132809400558472 
H -1.6152604818344116 0.4069514274597168 1.188294768333435 
H 0.09507038444280624 1.8549690246582031 0.1569858193397522 
H 1.3992693424224854 0.8658487200737 1.0074607133865356 
H 1.356181025505066 -1.0075701475143433 -0.5858082175254822 
