15

O -0.7780078053474426 -2.322972297668457 0.3649643361568451 
C -0.6604490280151367 -0.904241144657135 0.49231913685798645 
C -0.8222294449806213 -0.16704876720905304 -0.8709990978240967 
C -0.08146920055150986 1.1160005331039429 -0.4552621841430664 
O -0.7352675199508667 2.217961549758911 -0.015490967780351639 
C 1.3394992351531982 0.6115856170654297 0.0674339160323143 
C 0.668542206287384 -0.3554134964942932 0.9648385047912598 
H 0.14604179561138153 -2.6319470405578613 0.32275038957595825 
H -1.4743226766586304 -0.5446226596832275 1.1561461687088013 
H -1.8707988262176514 0.027248045429587364 -1.1267167329788208 
H -0.3120265305042267 -0.6958653330802917 -1.6926406621932983 
H 0.012344937771558762 2.195807456970215 -1.0423775911331177 
H 1.9152905941009521 0.24801646173000336 -0.791486918926239 
H 1.8934593200683594 1.4143571853637695 0.5730331540107727 
H 0.7593929767608643 -0.20886562764644623 2.0534884929656982 
