15

C -1.8538627624511719 0.8150597214698792 0.7175514698028564 
N -0.6102569699287415 0.0821262001991272 0.5095293521881104 
C 0.3827507197856903 0.477802574634552 -0.2656582295894623 
C 1.5338448286056519 -0.3726904094219208 -0.5235100388526917 
O 2.1018245220184326 1.0273205041885376 0.37908658385276794 
C 0.18652541935443878 -2.071528911590576 -1.2199538946151733 
N -0.6737756729125977 -2.612761974334717 -0.6079222559928894 
H -2.6860971450805664 0.2056126594543457 0.3406568169593811 
H -2.0149917602539062 1.0186185836791992 1.7843517065048218 
H -1.8275549411773682 1.7650893926620483 0.17187456786632538 
H -0.6671342253684998 -0.9486581683158875 0.6112626791000366 
H 0.2501319944858551 1.376792550086975 -0.8623633980751038 
H 2.071876287460327 -0.29174017906188965 -1.4577490091323853 
H 1.7873783111572266 -1.1849428415298462 0.143243670463562 
H 2.0722815990448 0.6991212964057922 1.3035298585891724 
