12

C -1.849130630493164 -0.6713873147964478 -0.12482728809118271 
N -0.578566312789917 0.0048575433902442455 0.07142512500286102 
C 0.5346172451972961 -0.5107117295265198 -0.24368268251419067 
C 1.847867727279663 -0.4110012650489807 -0.5811619162559509 
N 2.1519126892089844 1.7511368989944458 0.4928794801235199 
C 1.0918382406234741 2.1919116973876953 0.713379979133606 
H -1.7613650560379028 -1.654784917831421 -0.6185365915298462 
H -2.3483598232269287 -0.8171510696411133 0.8456149101257324 
H -2.5088679790496826 -0.040166519582271576 -0.7398404479026794 
H 0.7133604288101196 -1.5542011260986328 -0.7922106385231018 
H 2.5653982162475586 -0.9392171502113342 0.06173219159245491 
H 0.10886703431606293 2.5768938064575195 0.9056208729743958 
