15

C 0.8729373216629028 1.5320013761520386 -0.7345539927482605 
C 0.4831438958644867 0.21937936544418335 -0.1490544080734253 
O 0.601881206035614 0.020889924839138985 1.984886646270752 
C -0.8075813055038452 -0.4254480004310608 -0.6097147464752197 
N -1.4933096170425415 -1.1313724517822266 0.48457932472229004 
C 1.3810195922851562 -0.5459675192832947 0.6468205451965332 
N 2.3170127868652344 -1.310681700706482 0.5215151906013489 
H 1.7968158721923828 1.9175337553024292 -0.29305917024612427 
H 0.059056803584098816 2.262735605239868 -0.6150050163269043 
H 1.0256003141403198 1.4119080305099487 -1.8224537372589111 
H -0.11714044958353043 -0.6614475250244141 2.008265733718872 
H -0.5098912715911865 -1.1675530672073364 -1.3689489364624023 
H -1.435185194015503 0.3233184218406677 -1.1254026889801025 
H -2.025664806365967 -1.9212877750396729 0.11783932149410248 
H -2.1655752658843994 -0.4965113699436188 0.9190548062324524 
