12

C -1.7119483947753906 -0.380567342042923 -0.2684485614299774 
C -0.3333219289779663 -0.1909373551607132 0.2283904254436493 
O 0.5487802028656006 -1.1797606945037842 0.2824626863002777 
C 0.46737056970596313 1.0107415914535522 0.6136984825134277 
C 1.7009714841842651 -0.2895238399505615 0.25368303060531616 
O 0.4012015461921692 2.1902878284454346 0.20648059248924255 
H -1.7553975582122803 -0.11424649506807327 -1.339347243309021 
H -2.05918550491333 -1.4158827066421509 -0.1554146707057953 
H -2.387484312057495 0.313834547996521 0.25000953674316406 
H 0.5204634070396423 0.791101336479187 1.7407890558242798 
H 2.016357421875 -0.1379082202911377 -0.7774027585983276 
H 2.4819819927215576 -0.6278855204582214 0.9386524558067322 
