14

C -0.775861918926239 1.217915654182434 1.048614740371704 
C -1.2168439626693726 -0.6349876523017883 -0.5013282895088196 
C -0.4208745062351227 -1.2340551614761353 -1.5431631803512573 
C 0.33041757345199585 -1.1208921670913696 -0.2998403012752533 
C 1.4646170139312744 -0.24570484459400177 -0.16056755185127258 
C 2.473968267440796 0.43501681089401245 -0.079474538564682 
H -0.12328103184700012 1.9072816371917725 0.5176603198051453 
H -0.3079606592655182 0.6167334914207458 1.8235130310058594 
H -1.7992678880691528 1.54498291015625 1.2382084131240845 
H -1.9082592725753784 -1.1618013381958008 0.1512487828731537 
H -0.10906989127397537 -0.6850476264953613 -2.4323043823242188 
H -1.4465663433074951 0.45011845231056213 -0.5878192186355591 
H 0.31573355197906494 -1.9608194828033447 0.4015612006187439 
H 3.3559720516204834 1.0385202169418335 -0.02199319750070572 
