13

N -0.23705635964870453 -0.022868722677230835 -2.0869662761688232 
C 0.18923230469226837 0.9290931820869446 -1.1814135313034058 
C 1.0672457218170166 0.5464781522750854 -0.02159760147333145 
C 0.05952432006597519 0.24389708042144775 1.1270408630371094 
C -1.0152510404586792 -0.5950659513473511 0.3930245637893677 
O -1.326627492904663 0.1245565339922905 -0.8217018842697144 
H 0.29551804065704346 -0.9068952202796936 -1.9711546897888184 
H 1.706287145614624 -0.3210364580154419 -0.2556926906108856 
H 1.7415492534637451 1.3821313381195068 0.2216600775718689 
H -0.37994062900543213 1.177270770072937 1.508625864982605 
H 0.5287173986434937 -0.2951759099960327 1.9509388208389282 
H -1.967397928237915 -0.6451036930084229 0.953048825263977 
H -0.6618003845214844 -1.6172809600830078 0.18418771028518677 
