12

O 2.0546610355377197 -0.9710774421691895 -0.030125441029667854 
C 0.9426393508911133 -1.3428272008895874 0.33599796891212463 
C -0.2942221164703369 -0.5164455771446228 0.042779382318258286 
C -0.24112261831760406 0.9182166457176208 0.6760076284408569 
O -0.6999226808547974 1.7449880838394165 -0.40578222274780273 
C -0.46556177735328674 -0.011564514599740505 -1.3930466175079346 
H 0.7689284682273865 -2.338244676589966 0.7923225164413452 
H -1.1794261932373047 -1.0761948823928833 0.38862088322639465 
H -0.915454089641571 1.0271848440170288 1.5464798212051392 
H 0.7885155081748962 1.1940276622772217 0.9431803822517395 
H 0.531521201133728 0.2178560495376587 -1.810547947883606 
H -1.2905559539794922 1.1540812253952026 -1.0858864784240723 
