15

C 1.398635745048523 -0.9753149151802063 1.952634334564209 
C 0.0025723716244101524 0.7523166537284851 -0.049711428582668304 
O 1.199126124382019 1.3884696960449219 0.1511193811893463 
C -1.1339763402938843 1.2376058101654053 -0.9407734274864197 
C -1.3834774494171143 -0.2708683907985687 -1.30977201461792 
C -0.222412109375 -0.6396473050117493 -0.36455419659614563 
O 0.15390323102474213 -1.7380868196487427 0.05910763517022133 
H 0.6938466429710388 -1.5811370611190796 2.479454517364502 
H 2.2496817111968994 -1.4489387273788452 1.506848931312561 
H 1.472835659980774 0.06964797526597977 2.22308611869812 
H 1.9302083253860474 0.8246729969978333 -0.12003245204687119 
H -0.8355834484100342 1.862445592880249 -1.7965916395187378 
H -1.9693835973739624 1.71318781375885 -0.4135149121284485 
H -1.1997286081314087 -0.5073691010475159 -2.3700110912323 
H -2.356247901916504 -0.6869838833808899 -1.0072897672653198 
