11

C -0.093370720744133 1.1165671348571777 0.048317208886146545 
C -1.1763482093811035 0.2686426043510437 -0.07839398086071014 
C -0.984198272228241 -1.1422955989837646 -0.08461941033601761 
N 0.19691507518291473 -1.727556586265564 0.22222265601158142 
C 1.2552909851074219 -0.9678676128387451 -0.15098188817501068 
C 1.1928211450576782 0.469206303358078 -0.17448653280735016 
H -0.1918911337852478 2.1524055004119873 0.3743866980075836 
H -2.200366973876953 0.6430158615112305 -0.040024518966674805 
H -1.849061369895935 -1.8029638528823853 -0.1990681290626526 
H 1.851091980934143 0.058990273624658585 0.7992059588432312 
H 1.990031361579895 0.9865460991859436 -0.7162600159645081 
