17

C -2.0354855060577393 -0.3674430251121521 -0.04746967554092407 
C -1.4975934028625488 0.8899045586585999 -0.5840815305709839 
C -0.4959051311016083 0.0007423412171192467 0.014850919134914875 
C 0.4747769236564636 -0.9143577218055725 -0.5652071833610535 
C 1.5367343425750732 -0.6912358403205872 0.42835187911987305 
C 1.75284743309021 0.8068806529045105 0.6661376357078552 
C 0.5041128396987915 0.19074580073356628 1.182227611541748 
H -2.1866064071655273 -1.221726655960083 -0.7138223648071289 
H -2.6607909202575684 -0.40043020248413086 0.8550007343292236 
H -0.598463773727417 0.5716164708137512 -2.186917781829834 
H -1.7583305835723877 1.8055232763290405 -0.0416409932076931 
H 0.2737634778022766 -1.844321370124817 -1.0987471342086792 
H 0.03807973489165306 0.12363003939390182 -2.4176812171936035 
H 2.207165479660034 -1.436011791229248 0.8502152562141418 
H 1.7017332315444946 1.4813119173049927 -0.1908900886774063 
H 2.531855344772339 1.0231088399887085 1.3986068964004517 
H 0.25814899802207947 0.03713662549853325 2.2297840118408203 
