12

C 1.5039376020431519 -0.5630246996879578 0.8498967885971069 
C 0.2900387644767761 0.04099303111433983 0.3674320876598358 
C -0.7649967670440674 0.9308979511260986 0.5136575698852539 
C -1.6700528860092163 0.5898646116256714 -0.5156216025352478 
N -1.3321833610534668 -0.4300726056098938 -1.30199134349823 
N 0.025477131828665733 -0.6625984907150269 -0.8914960622787476 
H 1.5147697925567627 -0.8769301176071167 1.900243878364563 
H 2.451307535171509 -0.06033460795879364 0.5862624645233154 
H 0.7811368703842163 -1.4828088283538818 -0.3694859445095062 
H -0.8032963871955872 1.809487223625183 1.1542515754699707 
H -2.664982318878174 1.0342527627944946 -0.6557883024215698 
H 0.6688441634178162 -0.3297264277935028 -1.6373612880706787 
