14

C -1.6557458639144897 -0.17411743104457855 0.3647576868534088 
C -0.20898552238941193 0.2153918296098709 0.241201251745224 
C 0.33886587619781494 1.1064831018447876 -0.8352832198143005 
C 0.8124793767929077 -0.3220118284225464 -0.7617471218109131 
C 1.6516566276550293 -0.5340256094932556 1.0986698865890503 
O 0.5271543860435486 0.27890393137931824 1.4520882368087769 
H -1.75131094455719 -1.1723836660385132 0.813697099685669 
H -2.1829047203063965 0.5469312071800232 1.0055875778198242 
H -2.1417160034179688 -0.18359430134296417 -0.6202523112297058 
H 1.0121982097625732 1.9266750812530518 -0.5844219326972961 
H -0.3413670063018799 1.3018896579742432 -1.665930986404419 
H 0.6767870187759399 -1.095208764076233 -1.5155161619186401 
H 1.9611711502075195 -0.2659411132335663 -0.13786080479621887 
H 1.2972396612167358 -1.5928288698196411 1.0812857151031494 
