6

O -1.379437804222107 -1.39987051486969 -0.8985919952392578 
C -0.7898147106170654 -0.6046977639198303 -0.24214956164360046 
C 0.3861018717288971 1.0314992666244507 -1.0846413373947144 
N 1.116540789604187 1.2176015377044678 -0.12138381600379944 
C -0.1774364560842514 -0.4521818459033966 1.0145624876022339 
N 0.8440463542938232 0.20764945447444916 1.3322041034698486 
