11

O -0.3686748147010803 -2.007866859436035 -1.1546802520751953 
C -0.32920268177986145 -1.016803503036499 -0.2890712320804596 
O -0.6123524308204651 -1.0466002225875854 1.0517005920410156 
C -0.4754050076007843 0.2845722436904907 1.473541021347046 
C -0.010210412554442883 1.1327495574951172 0.5215640664100647 
C -0.08118333667516708 0.6122517585754395 -0.8375118374824524 
C 0.7168335914611816 -0.6703252196311951 -1.0645264387130737 
H -0.449430912733078 0.3757783770561218 2.555475950241089 
H 0.35876497626304626 2.142591714859009 0.7134682536125183 
H -0.5041215419769287 1.1309278011322021 -1.7053196430206299 
H 1.754982590675354 -0.9372759461402893 -1.264640212059021 
