13

C 0.7800895571708679 1.2642661333084106 0.4029175341129303 
C 0.9132601022720337 -0.06529642641544342 -0.32096174359321594 
N 0.6456929445266724 -1.3288518190383911 0.39197802543640137 
C -0.20546406507492065 -0.9641525745391846 -0.800727903842926 
C -1.593543291091919 -0.6096289157867432 -0.5208560824394226 
O -1.9387271404266357 -0.23395894467830658 0.7200686931610107 
H 0.7959542870521545 2.092688798904419 -0.32332661747932434 
H 1.6037505865097046 1.40510892868042 1.1129711866378784 
H -0.15779246389865875 1.3210296630859375 0.9538361430168152 
H 1.8071256875991821 -0.14907622337341309 -0.9412887096405029 
H 0.05779378116130829 -1.1235034465789795 1.2108999490737915 
H -0.008680278435349464 -1.5703023672103882 -1.688655138015747 
H -2.6994597911834717 -0.03832274675369263 -0.19685539603233337 
