12

C -1.171675443649292 1.0348964929580688 -0.11231637746095657 
O -0.8263201117515564 0.41602498292922974 -1.3512157201766968 
C -0.05505724251270294 -0.5989478826522827 -0.9639632701873779 
C 1.3149487972259521 0.4118586778640747 0.4290475845336914 
O 0.8292197585105896 -0.685056746006012 1.2376199960708618 
C -0.08356261253356934 -1.1556017398834229 0.4023321270942688 
H -2.119001865386963 0.6432973146438599 0.271077960729599 
H -1.1263326406478882 2.1236348152160645 -0.1781083047389984 
H 0.04532911255955696 -1.325836181640625 -1.7960619926452637 
H 2.277498722076416 0.13773202896118164 -0.009173733182251453 
H 1.3165252208709717 1.3466156721115112 0.9873901605606079 
H -0.3840516209602356 -2.1935853958129883 0.6312435865402222 
