13

N 2.319155216217041 0.8897740244865417 0.015273338183760643 
C 1.5449473857879639 -0.07059037685394287 -0.2751922309398651 
O 0.44223102927207947 0.18152201175689697 -1.0586161613464355 
C -0.6587241291999817 -0.6637791395187378 -0.9350822567939758 
C -0.9944919943809509 -1.3291319608688354 0.18576239049434662 
C -1.5118318796157837 1.680959939956665 -0.6980194449424744 
H 3.1341426372528076 0.5319281220436096 0.5251235961914062 
H 1.6296720504760742 -1.1386795043945312 -0.019056517630815506 
H -1.1825337409973145 -0.7504791021347046 -1.8811382055282593 
H -1.8742583990097046 -1.9678558111190796 0.17590364813804626 
H -0.469997376203537 -1.199316143989563 1.1304210424423218 
H -0.6353043913841248 2.3673596382141113 -0.8022823929786682 
H -1.576450228691101 1.5486823320388794 0.41398924589157104 
