15

C -1.5290062427520752 -1.2271910905838013 -0.499504953622818 
C -0.6112970113754272 -0.07452855259180069 -0.10546351969242096 
C 0.3427217900753021 0.5297585725784302 -0.9708012342453003 
C 1.5385247468948364 1.074373483657837 -0.21322651207447052 
C 1.3980095386505127 0.5475835800170898 1.2286890745162964 
O 1.2575604915618896 -0.8469155430793762 1.3265217542648315 
C 0.02419584058225155 -0.040887605398893356 1.308200716972351 
H -2.32041597366333 -1.3614381551742554 0.24788101017475128 
H -0.9399880766868591 -2.1532938480377197 -0.5501062273979187 
H -1.9675036668777466 -1.0252065658569336 -1.4795989990234375 
H 0.2391359657049179 0.6738938093185425 -2.041391134262085 
H 1.5779389142990112 2.172992706298828 -0.22319085896015167 
H 2.4765658378601074 0.723701536655426 -0.6628073453903198 
H -0.8920189738273621 1.0136888027191162 0.4298368990421295 
H -0.5944231152534485 -0.006530967075377703 2.204961061477661 
