10

O 2.247194766998291 -0.6787558794021606 -0.4970601499080658 
C 1.0023298263549805 -0.7701653838157654 -0.2233082503080368 
C 0.9344906806945801 0.6717159748077393 0.09462364763021469 
O -0.9409164786338806 0.7705798745155334 0.7759667634963989 
C -1.6392323970794678 -0.026239225640892982 0.12663832306861877 
O 0.1296609342098236 -1.6458094120025635 -0.23707573115825653 
H 0.8748812079429626 1.3734557628631592 -0.7360060214996338 
H 1.3508895635604858 1.0374042987823486 1.0283006429672241 
H -1.5730539560317993 -0.13345566391944885 -0.9655386209487915 
H -2.4546260833740234 -0.5660643577575684 0.636337399482727 
