17

C 0.9377841353416443 -1.6275134086608887 -0.36285603046417236 
C 1.218347430229187 -0.2215454876422882 -0.8685838580131531 
C 1.2632466554641724 0.989112377166748 0.06049230322241783 
C 0.12218574434518814 0.8514370918273926 -0.898796558380127 
C -2.058020830154419 0.6479266285896301 0.30662116408348083 
C -1.8221819400787354 -0.12551844120025635 1.436360478401184 
O -0.9920620918273926 -0.647735595703125 2.1723453998565674 
H 0.16523891687393188 -2.1072237491607666 -0.9857451319694519 
H 0.6285526156425476 -1.609898328781128 0.6792961359024048 
H 1.8412652015686035 -2.2501907348632812 -0.4310164451599121 
H 1.8452914953231812 -0.1762467622756958 -1.767509937286377 
H 1.9928141832351685 1.7713229656219482 -0.14403481781482697 
H 1.0568500757217407 0.7754083871841431 1.1082979440689087 
H 0.04115671664476395 1.5317115783691406 -1.7558304071426392 
H -2.3380095958709717 1.6968947649002075 0.38383346796035767 
H -0.9337292313575745 0.5168283581733704 -0.6397225856781006 
H -2.9687294960021973 -0.014770307578146458 1.706849217414856 
