14

C -0.9240576028823853 -0.9240155220031738 -0.5554337501525879 
C -1.174445390701294 -0.1832311451435089 0.7551802396774292 
C 0.26008141040802 1.7461591958999634 0.0018548831576481462 
C 1.261117696762085 0.8914965391159058 -0.1640717089176178 
C 1.1825989484786987 -0.5363559126853943 0.26821041107177734 
O 0.4420505464076996 -1.4273186922073364 -0.4923681914806366 
H -1.5547758340835571 -1.8051329851150513 -0.7297888994216919 
H -1.0208510160446167 -0.2214374989271164 -1.3975962400436401 
H -1.8776935338974 0.6427685618400574 0.67088782787323 
H -1.4600818157196045 -0.8288820385932922 1.602127194404602 
H 0.11340151727199554 2.7053840160369873 -0.5049911141395569 
H 2.2263238430023193 1.17357337474823 -0.6027554869651794 
H 0.13406334817409515 -0.1818431168794632 1.0937941074371338 
H 2.109476089477539 -1.0283409357070923 0.5791805386543274 
