10

O 1.452095866203308 0.6576542258262634 -1.164402961730957 
C 0.41629183292388916 0.524848222732544 -0.3643440902233124 
C -0.7133786082267761 -0.07188734412193298 -1.1194614171981812 
C 0.34988418221473694 -0.6620396971702576 0.6280025839805603 
C 0.39798682928085327 -1.724545955657959 1.264574646949768 
C -0.02302357368171215 1.7555193901062012 0.3567688465118408 
N -0.2428111881017685 2.721895694732666 0.9937093257904053 
H -1.6983606815338135 -0.3152610659599304 -0.6914792656898499 
H -0.4714149534702301 -0.568088948726654 -2.0583040714263916 
H 0.5327301621437073 -2.3180947303771973 2.1549365520477295 
