10

O -2.0844714641571045 0.4933045506477356 -0.35316428542137146 
C -0.759199857711792 0.09045539796352386 -0.569235622882843 
C 0.02505873329937458 -0.49564674496650696 0.5328395366668701 
O 1.377228856086731 -1.175356388092041 -0.4648556113243103 
C 0.3568417727947235 0.9301671385765076 0.10757207125425339 
C 1.4898343086242676 0.03523477539420128 0.11009136587381363 
H -2.038533926010132 1.365363597869873 0.10215243697166443 
H -0.5913766026496887 -0.32737889885902405 -1.567918300628662 
H -0.14016108214855194 -1.168557047843933 1.376274824142456 
H 2.364779472351074 0.2524135708808899 0.7262436747550964 
