14

O 1.0932306051254272 1.6913447380065918 0.16805049777030945 
C 1.1598103046417236 0.5298384428024292 -0.22639542818069458 
C 2.1400365829467773 -0.46738070249557495 -0.057754773646593094 
N -0.18544524908065796 -1.107923984527588 0.2521262466907501 
C -1.1623605489730835 -0.22543247044086456 0.9532040357589722 
C -1.4371027946472168 0.5492173433303833 -0.36000680923461914 
C -0.19363808631896973 -0.20258380472660065 -0.8452256321907043 
H 2.0376784801483154 -1.411866545677185 -0.5841747522354126 
H 3.1286416053771973 -0.19696302711963654 0.31950944662094116 
H -0.6987944841384888 0.38240084052085876 1.744889736175537 
H -1.9724071025848389 -0.8261546492576599 1.392415165901184 
H -1.3652832508087158 1.641983151435852 -0.335586279630661 
H -2.351330041885376 0.219280406832695 -0.8664126396179199 
H -0.03741287812590599 -0.5822646617889404 -1.8618758916854858 
