14

C -0.3778909742832184 -1.6975032091140747 1.3686234951019287 
C 0.042643655091524124 -0.36523354053497314 0.7515872716903687 
O 0.008324137888848782 0.675505518913269 1.5043387413024902 
C 0.5086521506309509 -0.3178446292877197 -0.565954864025116 
C 0.15496164560317993 1.9137170314788818 -0.5686036944389343 
C -0.007516583893448114 0.8056014180183411 -1.476463794708252 
H -1.2950948476791382 -1.5768193006515503 1.9521052837371826 
H 0.42300140857696533 -2.0520241260528564 2.0327234268188477 
H -0.5486040711402893 -2.4616076946258545 0.5985145568847656 
H 0.9932647347450256 -1.1755411624908447 -1.0398616790771484 
H -0.6556455492973328 2.3918769359588623 -0.042422354221343994 
H 1.156336784362793 2.277377128601074 -0.340248703956604 
H -1.0558527708053589 0.6943933367729187 -1.816428542137146 
H 0.6534203290939331 0.8881025314331055 -2.3579084873199463 
