11

O -0.4502091109752655 1.412554144859314 -2.2299296855926514 
C -0.0934397503733635 0.5851752161979675 -1.4144705533981323 
O 1.2655993700027466 0.42775237560272217 -1.1679036617279053 
C 0.040418557822704315 1.10036301612854 1.7749874591827393 
C 0.39651399850845337 -0.14674951136112213 1.4853670597076416 
C -0.28608250617980957 -0.949862003326416 0.47613444924354553 
C -0.8958112597465515 -0.29025399684906006 -0.5946823954582214 
H 1.2935363054275513 0.9939260482788086 -0.2638183534145355 
H 1.1359180212020874 -0.6395034193992615 2.1483187675476074 
H -0.5077231526374817 -1.9753694534301758 0.7518206238746643 
H -1.898720145225525 -0.5180322527885437 -0.9658238887786865 
