15

C 1.5723360776901245 -0.5343642234802246 0.3487320840358734 
C 0.23164747655391693 0.023807045072317123 0.7688755989074707 
C 0.3385221064090729 1.4211093187332153 -1.2349433898925781 
O -0.917188286781311 0.7774903178215027 -1.515326738357544 
C -1.0105899572372437 0.681651771068573 -0.12520430982112885 
C -1.024185299873352 -0.7177308797836304 0.4442448318004608 
O -0.9813522696495056 -1.7711575031280518 -0.46787649393081665 
H 2.335075855255127 0.24751412868499756 0.2892606556415558 
H 1.510457992553711 -1.0307294130325317 -0.6226818561553955 
H 1.8697595596313477 -1.2851752042770386 1.1007843017578125 
H 0.22799202799797058 0.5470364689826965 1.7275054454803467 
H 0.025531096383929253 2.450176954269409 -0.8715795278549194 
H -1.5577417612075806 1.480415940284729 0.37812280654907227 
H -1.7541533708572388 -0.886282205581665 1.240232229232788 
H -0.9105823636054993 -1.356182336807251 -1.3541275262832642 
