16

C 1.5916962623596191 0.06810883432626724 0.8758942484855652 
N 0.7760108113288879 1.0239536762237549 0.21558484435081482 
C -0.4779737591743469 1.195299744606018 0.8732779622077942 
C -0.9331797957420349 -0.7606910467147827 0.254280686378479 
C -0.1831972450017929 -0.9695596694946289 -1.0720237493515015 
C 0.0894259512424469 0.5575259327888489 -1.0599607229232788 
C -1.2488800287246704 0.6976969838142395 -0.24211566150188446 
H 2.423150062561035 -0.3267252743244171 0.27163082361221313 
H 0.44672691822052 -0.8360999226570129 0.9237544536590576 
H 1.8749016523361206 0.36030343174934387 1.8946799039840698 
H -0.5531842112541199 1.1120356321334839 1.9592257738113403 
H -1.710534691810608 -1.3985012769699097 0.6950578093528748 
H 0.6588691473007202 -1.6684198379516602 -1.1346416473388672 
H -0.9089121222496033 -1.1786993741989136 -1.8753561973571777 
H 0.3853722810745239 1.1127007007598877 -1.9526286125183105 
H -2.2302908897399902 1.0110713243484497 -0.626660943031311 
