17

C 2.038722515106201 0.5936614274978638 -0.813811719417572 
C 0.8573648929595947 -0.09258311986923218 -0.27830004692077637 
C 0.5725885033607483 -0.6158285737037659 1.0739095211029053 
O -0.86416095495224 -0.2294979840517044 1.2267913818359375 
C -1.3972856998443604 -0.39105895161628723 -0.03206472843885422 
C -2.558039665222168 0.5374158024787903 -0.2934440076351166 
O -0.2675125002861023 -0.03325164318084717 -0.9882587194442749 
H 2.658099889755249 -0.040778547525405884 -1.461677074432373 
H 2.696367025375366 0.7547042369842529 0.0776134505867958 
H 1.737330675125122 1.485859751701355 -1.3912348747253418 
H 2.840831995010376 -0.6556209921836853 1.1671708822250366 
H 1.2697358131408691 -0.17072057723999023 1.8166706562042236 
H 0.6237215399742126 -1.704483151435852 1.1926484107971191 
H -1.6215674877166748 -1.4437998533248901 -0.287341445684433 
H -2.2532434463500977 1.5736414194107056 -0.10518165677785873 
H -2.9040231704711914 0.4370937645435333 -1.3295116424560547 
H -3.384676933288574 0.28121688961982727 0.38177457451820374 
