15

C 1.5254789590835571 0.5577642917633057 -0.06151343882083893 
C 1.0282726287841797 -0.7099931240081787 -0.7496220469474792 
C -0.30369898676872253 -0.9506741762161255 -0.043312110006809235 
C -0.9333639740943909 0.4189595878124237 0.1655319780111313 
O -0.954304575920105 1.404305338859558 -0.751980185508728 
N -1.9448899030685425 0.495439738035202 1.0474107265472412 
H 0.08790545910596848 1.4566413164138794 -0.7887697219848633 
H 2.321578025817871 1.101407766342163 -0.5932360291481018 
H 1.8382891416549683 0.3687150776386261 0.9747447967529297 
H 0.8428028225898743 -0.5302537679672241 -1.8208303451538086 
H 1.6659021377563477 -1.6143079996109009 -0.6932359337806702 
H -1.0232783555984497 -1.6205017566680908 -0.5582815408706665 
H -0.11477819830179214 -1.3810088634490967 0.9526509642601013 
H -2.4547040462493896 1.367086410522461 1.1466227769851685 
H -2.158592462539673 -0.26997601985931396 1.6760210990905762 
