12

C 0.1998172402381897 -3.0309336185455322 0.365323543548584 
C 0.44538941979408264 -1.804847240447998 0.20296894013881683 
C 0.717770516872406 -0.44846299290657043 0.234776109457016 
N -0.3029685318470001 0.7228823900222778 1.3221007585525513 
C -0.42339757084846497 0.5110589265823364 -0.11791448295116425 
C -0.06854358315467834 1.6589224338531494 -0.9563013315200806 
C 0.16246375441551208 2.6364328861236572 -1.6485718488693237 
H 0.4433213472366333 -4.077912330627441 0.23850104212760925 
H 0.8168245553970337 0.23518651723861694 1.4161802530288696 
H -1.034409999847412 0.20413784682750702 1.7916501760482788 
H -1.357812762260437 0.04813558980822563 -0.43726611137390137 
H 0.4015457332134247 3.345400094985962 -2.411447048187256 
