12

C 0.029915472492575645 -0.7310747504234314 -1.1524178981781006 
C 0.372874915599823 0.1899566352367401 0.021706311032176018 
C -0.529183030128479 0.05775405466556549 1.2503458261489868 
O 1.6653950214385986 0.4535675346851349 0.24612894654273987 
H 0.5926556587219238 -0.41059327125549316 -2.038881778717041 
H -1.0441832542419434 -0.7356023788452148 -1.3714431524276733 
H 0.34783411026000977 -1.7467670440673828 -0.8586333394050598 
H -0.1328565776348114 1.5026768445968628 -0.51350998878479 
H -1.5899879932403564 0.014969796873629093 0.9812585711479187 
H -0.3367524743080139 0.8888840079307556 1.9423516988754272 
H -0.24321702122688293 -0.8787010312080383 1.7546937465667725 
H 0.8675052523612976 1.3949295282363892 -0.2615988254547119 
