10

O -2.173781633377075 0.5519973635673523 -1.7179428339004517 
C -1.822731852531433 -0.11290369182825089 -0.6881483793258667 
C -0.4587079882621765 -0.15816672146320343 -0.18545563519001007 
N 0.3872392475605011 -1.1758314371109009 -0.11882205307483673 
C 1.4946885108947754 -0.6870626211166382 0.512059211730957 
C 1.2814511060714722 0.6540040373802185 0.799854040145874 
O 0.0822325199842453 1.0256199836730957 0.3171592354774475 
H -3.001643180847168 -0.14072684943675995 -1.009461760520935 
H 2.335972785949707 -1.3344266414642334 0.74213707447052 
H 1.8752806186676025 1.377496361732483 1.3486212491989136 
