11

C -1.6489861011505127 -0.19909460842609406 -0.07066593319177628 
C -0.17279909551143646 0.0659719780087471 0.060817502439022064 
C 0.46482613682746887 1.3762959241867065 0.1159466803073883 
O 1.8183618783950806 1.0088609457015991 -0.031426168978214264 
C 1.8844013214111328 -0.3440413773059845 -0.2583489716053009 
N 0.7644074559211731 -0.9823540449142456 -0.201569065451622 
H -1.962587594985962 -1.035778522491455 0.5657138228416443 
H -1.8667343854904175 -0.4652514159679413 -1.1130883693695068 
H -2.2197017669677734 0.7006015181541443 0.18712274730205536 
H 0.01133270375430584 0.5812815427780151 1.1851122379302979 
H 2.866870641708374 -0.7637829780578613 -0.4520445168018341 
