16

C 0.4392569065093994 -1.874834418296814 -0.03378615155816078 
C 0.08564024418592453 -0.6756024360656738 -0.8934863805770874 
C -1.2512550354003906 0.44357994198799133 0.19268925487995148 
C -0.26687589287757874 1.4447784423828125 0.7506622076034546 
C 1.1217305660247803 1.2205926179885864 0.08816324174404144 
C 1.2614375352859497 0.4072273075580597 -0.9687672257423401 
H 0.9099055528640747 -1.5706889629364014 0.9027474522590637 
H -0.45661091804504395 -2.4852185249328613 0.1579420268535614 
H 1.1623882055282593 -2.4987573623657227 -0.59126877784729 
H -0.35075643658638 -0.9546868205070496 -1.8605538606643677 
H -2.0765411853790283 0.8240789771080017 -0.423197865486145 
H -1.5749491453170776 -0.3652307987213135 0.8455327749252319 
H -0.5930862426757812 2.4856879711151123 0.5648665428161621 
H -0.17482244968414307 1.3425253629684448 1.8418110609054565 
H 1.9543505907058716 1.800732135772705 0.5106205344200134 
H -0.18981215357780457 0.45581671595573425 -1.0839747190475464 
