10

N 1.9241982698440552 -0.1463044434785843 -0.8643817901611328 
C 0.536592960357666 0.3667270243167877 -0.535507082939148 
N 0.38370248675346375 -0.6154338717460632 0.3479788601398468 
C -1.4418832063674927 -0.41438472270965576 1.1524477005004883 
C -2.123300552368164 0.31831836700439453 0.4264013171195984 
O 0.005887834820896387 1.3548463582992554 -1.0403279066085815 
H 1.9284776449203491 -1.0255135297775269 -1.3886367082595825 
H 2.610424757003784 -0.05436493456363678 -0.11625038087368011 
H -1.3505361080169678 -1.0198383331298828 2.028785228729248 
H -2.4735641479492188 1.2359482049942017 -0.010509178973734379 
