14

C -0.758224606513977 1.2538623809814453 0.31509068608283997 
C -0.2596607506275177 -0.15719154477119446 0.3993091285228729 
N -0.5902537703514099 -0.9397231340408325 1.442373514175415 
O -1.798245906829834 -0.549752414226532 2.13952374458313 
C 0.38281089067459106 -0.8522013425827026 -0.7236782312393188 
C 1.5777618885040283 -0.26601409912109375 -1.425822138786316 
O 0.29402995109558105 -0.3215866982936859 -2.0779366493225098 
H -0.42871370911598206 1.8131377696990967 1.1993898153305054 
H -1.860521912574768 1.2615537643432617 0.34202897548675537 
H -0.4343625009059906 1.7531074285507202 -0.6021268963813782 
H -0.709614098072052 -0.8483367562294006 2.6163549423217773 
H 0.3320496380329132 -1.9458482265472412 -0.6808295249938965 
H 2.3443164825439453 -0.9398127198219299 -1.797667384147644 
H 1.9086284637451172 0.7388057708740234 -1.146010160446167 
