15

C 0.44504451751708984 -1.1866337060928345 -0.029387228190898895 
C -0.9068688154220581 -1.0088698863983154 0.49070999026298523 
C -1.1478098630905151 0.5952149033546448 0.9587463140487671 
O -0.749174952507019 1.479209542274475 0.059232406318187714 
C 1.253860592842102 1.0910677909851074 -1.1324514150619507 
H 0.812968373298645 -0.02903611958026886 -0.37858179211616516 
H 0.5795776844024658 -1.6889320611953735 -0.9876049757003784 
H 1.2356762886047363 -1.4325993061065674 0.6872161626815796 
H -1.693669080734253 -1.1911630630493164 -0.2564251720905304 
H -1.1083769798278809 -1.579545259475708 1.4062833786010742 
H -0.6375435590744019 0.6345317363739014 1.9538472890853882 
H -2.2551019191741943 0.5353500843048096 1.0931645631790161 
H 1.4895275831222534 1.9437692165374756 -0.4928097426891327 
H 0.550801694393158 1.3343768119812012 -1.9218666553497314 
H 2.1310884952545166 0.5032586455345154 -1.4500731229782104 
