16

C -0.899721622467041 1.7535412311553955 0.31637972593307495 
C 0.36605072021484375 -0.772741436958313 0.16137826442718506 
C -0.08921220898628235 -1.970611333847046 0.9413748979568481 
C -0.2005961388349533 -0.3025214374065399 -1.1588469743728638 
O 0.24901388585567474 1.1180238723754883 -1.1465778350830078 
C 1.5958011150360107 0.8407109975814819 -0.5793845653533936 
N 1.5002634525299072 -0.10388993471860886 0.34030216932296753 
H -0.1623821258544922 1.867389440536499 1.1138969659805298 
H -1.2064177989959717 2.645298957824707 -0.23403358459472656 
H -1.7045295238494873 1.0771008729934692 0.6019102931022644 
H 0.7446573972702026 -2.4029793739318848 1.498645544052124 
H -0.538868248462677 -2.725451707839966 0.28919297456741333 
H -0.8650016188621521 -1.6622157096862793 1.6797481775283813 
H 0.30526503920555115 -0.7782038450241089 -2.022526264190674 
H -1.2903234958648682 -0.3389515280723572 -1.2856379747390747 
H 2.1960010528564453 1.7555007934570312 -0.5158216953277588 
