13

C -2.165203332901001 0.41369059681892395 0.08929024636745453 
C -0.5472157001495361 0.407079815864563 -0.26144832372665405 
C -0.5107815265655518 -0.9260273575782776 -0.050481874495744705 
N 1.6426690816879272 -1.8757151365280151 -1.0003587007522583 
C 2.1342732906341553 -0.8844718933105469 -0.5854782462120056 
N 2.673957109451294 0.2784601151943207 -0.20141515135765076 
O 0.059592366218566895 1.4720786809921265 -0.38243138790130615 
H -2.5713140964508057 0.9739640951156616 -0.7623230814933777 
H -2.712599754333496 -0.5303548574447632 0.19541054964065552 
H -2.2369532585144043 0.9722501635551453 1.0266400575637817 
H -0.8740381598472595 -1.6818574666976929 -0.7416513562202454 
H 1.969941258430481 1.0306326150894165 -0.28051286935806274 
H 3.120466709136963 0.24607360363006592 0.7142291069030762 
