17

C -2.590498447418213 1.4725114107131958 1.0167697668075562 
C -1.2676568031311035 0.7141318917274475 1.1854336261749268 
O -0.5182585716247559 0.7450745105743408 0.009933444671332836 
C 1.58549165725708 -0.4494490921497345 -1.1553354263305664 
C 2.774822235107422 -1.1469241380691528 -0.5899019837379456 
C 0.3541546165943146 -1.1091182231903076 -1.367840051651001 
O -0.6263271570205688 -0.4833802878856659 -1.8525476455688477 
H -2.3983774185180664 2.543903112411499 0.905105710029602 
H -3.1246442794799805 1.1224863529205322 0.12500286102294922 
H -3.2409169673919678 1.2993927001953125 1.8852030038833618 
H -1.452195405960083 -0.34907326102256775 1.4769984483718872 
H -0.6499686241149902 1.1276588439941406 2.00925612449646 
H 1.6384526491165161 0.6003004908561707 -1.4366360902786255 
H 3.325186014175415 -0.4971921443939209 0.10061660408973694 
H 3.4716575145721436 -1.4398887157440186 -1.3897359371185303 
H 2.4998435974121094 -2.0484910011291504 -0.02057165838778019 
H 0.21923613548278809 -2.101943254470825 -0.9017512798309326 
