10

C 0.6461082100868225 0.7529452443122864 -0.5176732540130615 
C 1.5032309293746948 -0.35393092036247253 -0.008988265879452229 
N 0.5938737988471985 -1.0402257442474365 -0.6572050452232361 
N -0.5397589802742004 -1.5795954465866089 -0.21375054121017456 
C -1.1926017999649048 -0.5308877229690552 0.32722219824790955 
C -0.5912637710571289 0.7507534623146057 0.20436632633209229 
H 0.9669581055641174 1.508554220199585 -1.2381181716918945 
H 1.8916890621185303 -0.6346781253814697 0.9790400266647339 
H -2.184814453125 -0.7121559381484985 0.7375094890594482 
H -1.1144161224365234 1.6617929935455322 0.487244188785553 
