15

C -1.4039525985717773 -1.0079652070999146 0.5276638865470886 
C -0.8476671576499939 0.38492074608802795 0.23762929439544678 
O -1.1660488843917847 0.8139153718948364 -1.1004620790481567 
C 0.9209235906600952 1.2708638906478882 -1.0593560934066772 
C 1.3874133825302124 -0.16256703436374664 -0.9367310404777527 
C 0.6839025020599365 0.5001332759857178 0.22146467864513397 
O 1.3679735660552979 0.7762952446937561 1.4147411584854126 
H -2.501882553100586 -0.9959113001823425 0.42871278524398804 
H -1.1394015550613403 -1.32412850856781 1.546766757965088 
H -1.0029680728912354 -1.7497661113739014 -0.17445650696754456 
H -1.2288411855697632 1.1280548572540283 0.9563572406768799 
H -0.3001440465450287 1.585058331489563 -1.4343863725662231 
H 1.0009437799453735 -0.9374259114265442 -1.6034232378005981 
H 2.470524787902832 -0.2191886156797409 -0.7603714466094971 
H 1.7592244148254395 -0.06228934973478317 1.7358508110046387 
