19

C 2.0467867851257324 -0.25058457255363464 0.9817236661911011 
C 1.5729787349700928 -0.5660761594772339 -0.4480946362018585 
C 0.6699475049972534 0.49014097452163696 -1.024147868156433 
C -0.4741668701171875 0.2490820437669754 -1.7269415855407715 
C -2.035724401473999 0.31511229276657104 -0.10806262493133545 
C -1.6297332048416138 -0.5403550863265991 1.0716570615768433 
O -2.1924726963043213 1.5763558149337769 0.3500787019729614 
H 2.7168543338775635 -1.035367727279663 1.3604466915130615 
H 1.195746898651123 -0.16284450888633728 1.668887734413147 
H 2.595886468887329 0.7021216750144958 1.003962755203247 
H 1.065728783607483 -1.543481469154358 -0.4780329167842865 
H 2.4649858474731445 -0.6715919375419617 -1.093766212463379 
H 0.9506840109825134 1.527722716331482 -0.8193091750144958 
H -0.7446545362472534 -0.7617616057395935 -2.030311107635498 
H -0.9746313691139221 1.0480575561523438 -2.27266001701355 
H -2.568765640258789 -0.9841362833976746 1.4485442638397217 
H -1.1565806865692139 -0.0033570260275155306 1.9102312326431274 
H -0.996705174446106 -1.372851014137268 0.744960367679596 
H -2.5426025390625 2.107093334197998 -0.39495134353637695 
