17

C 1.7907236814498901 0.4761737585067749 -0.648955225944519 
C 0.5300776958465576 0.17323923110961914 0.1277410089969635 
C 0.20323869585990906 -1.286122441291809 0.5088226199150085 
C -1.2367562055587769 -1.1405271291732788 -0.0708533525466919 
C -0.9019434452056885 0.3201203942298889 -0.5137602090835571 
C -1.346079707145691 1.4967039823532104 0.2873653173446655 
O 0.4324014186859131 1.03343665599823 1.3210926055908203 
H 2.6701204776763916 0.3488728106021881 -0.0007828727248124778 
H 1.8909958600997925 -0.19582772254943848 -1.5130523443222046 
H 1.7750924825668335 1.5135564804077148 -1.0118520259857178 
H 0.8275981545448303 -2.019094228744507 -0.01870344951748848 
H 0.26744845509529114 -1.465964913368225 1.5884196758270264 
H -2.042400598526001 -1.205581545829773 0.6721558570861816 
H -1.4644511938095093 -1.8285621404647827 -0.8956579566001892 
H -0.969314694404602 0.51143479347229 -1.5965917110443115 
H -2.2253689765930176 1.2673677206039429 0.9248338937759399 
H -0.03480111435055733 1.8986324071884155 0.9059049487113953 
