15

C -2.007949113845825 -0.06837663054466248 0.20548729598522186 
N -0.5956338047981262 0.10121238231658936 0.49911877512931824 
C 0.28092020750045776 -1.033408522605896 0.09412921220064163 
C 1.163254976272583 -0.07225239276885986 -0.6706522107124329 
O 2.4270713329315186 0.7333685755729675 0.5187504291534424 
C 0.2011929303407669 0.9736910462379456 -0.42346450686454773 
H -2.431056022644043 -0.8322107791900635 0.8754495978355408 
H -2.5304789543151855 0.8782150745391846 0.4045034945011139 
H -2.2228219509124756 -0.3672363758087158 -0.8453765511512756 
H -0.21481747925281525 -1.6898468732833862 -0.6474416851997375 
H 0.6874176263809204 -1.6567884683609009 0.9048537015914917 
H 1.872518539428711 -0.27656102180480957 -1.4677232503890991 
H 2.3150367736816406 0.270560622215271 1.3775291442871094 
H 1.3633979558944702 1.363198161125183 0.34850502014160156 
H -0.2697051763534546 1.638439416885376 -1.1495574712753296 
