15

C -0.7648219466209412 -1.2492172718048096 0.49763208627700806 
C 0.34455883502960205 -0.7365345358848572 -0.2302379310131073 
O 1.4692089557647705 -0.6477237939834595 1.3642624616622925 
C 0.47689664363861084 0.6918735504150391 -0.6302332878112793 
C -0.7226505279541016 1.470969319343567 -1.0830142498016357 
N -0.06341587007045746 1.803223729133606 0.17860542237758636 
H 0.25481072068214417 -1.0818469524383545 1.4684317111968994 
H -0.9855350255966187 -2.318157196044922 0.38992759585380554 
H -1.634391188621521 -0.5934919118881226 0.6274096369743347 
H 0.9657173156738281 -1.4287832975387573 -0.8059308528900146 
H 2.08042311668396 -1.4270280599594116 1.3148837089538574 
H 1.4476470947265625 0.9326690435409546 -1.0865458250045776 
H -1.701735496520996 0.9899129867553711 -1.059918761253357 
H -0.554544985294342 2.179206132888794 -1.8982024192810059 
H -0.6121673583984375 1.4149281978607178 0.9529305696487427 
