12

O 0.4680381715297699 1.0735161304473877 -1.6950603723526 
C 1.3029711246490479 0.18567994236946106 -1.55080246925354 
C -0.13751132786273956 0.35942307114601135 1.702034831047058 
C -1.1059983968734741 0.8331204652786255 0.6585590243339539 
N -0.5886316299438477 -0.5454991459846497 0.7015150189399719 
C 0.1099005714058876 -1.2867881059646606 -0.12629401683807373 
O 1.3147772550582886 -0.9453714489936829 -0.6713809370994568 
H 2.296149730682373 0.11993759870529175 -2.0238521099090576 
H -0.5113356709480286 0.16405001282691956 2.711550712585449 
H -2.1508407592773438 0.9825015664100647 0.9323176741600037 
H -0.7891315221786499 1.3446993827819824 -0.24549998342990875 
H -0.20838768780231476 -2.2852694988250732 -0.39308738708496094 
