10

O -0.2978881895542145 -2.4011623859405518 -0.7822466492652893 
C -0.4422547221183777 -1.4064196348190308 -0.15060806274414062 
C 0.4042567014694214 -0.0037875273264944553 0.047610655426979065 
C 0.19349324703216553 1.0346258878707886 -0.908687174320221 
N -0.49129152297973633 0.38032203912734985 1.0948708057403564 
H -1.020681381225586 -1.1025084257125854 0.8868723511695862 
H 1.4521567821502686 -0.2192927896976471 0.2829553484916687 
H -0.8243891000747681 1.3679107427597046 -1.096498727798462 
H 1.0042718648910522 1.6494007110595703 -1.2940949201583862 
H 0.022326217964291573 0.7009114027023315 1.9198262691497803 
