16

C -1.4167978763580322 1.4366124868392944 -0.1201278492808342 
C -0.10131492465734482 0.7177613377571106 -0.21076717972755432 
C 0.11221965402364731 -0.6516731381416321 0.0631236657500267 
C -0.9565203189849854 -1.6471219062805176 0.4301248788833618 
C 1.4916070699691772 -0.8848104476928711 -0.0515931136906147 
C 2.087151288986206 0.33807283639907837 -0.41094958782196045 
N 1.0466917753219604 1.3571439981460571 -0.5678088665008545 
H -2.1740164756774902 0.9372842311859131 -0.7456042766571045 
H -1.321346640586853 2.473681688308716 -0.4614659249782562 
H -1.8128583431243896 1.442343831062317 0.9085285067558289 
H -0.5321336984634399 -2.6430749893188477 0.6127172112464905 
H -1.704016923904419 -1.742211103439331 -0.37276676297187805 
H -1.500408411026001 -1.3409380912780762 1.3371309041976929 
H 2.0005273818969727 -1.8330157995224 0.10214640200138092 
H 3.0568225383758545 0.5277243256568909 -0.8624534010887146 
H 1.8689329624176025 1.3625520467758179 0.39004045724868774 
