8

O -1.4248608350753784 -0.029741862788796425 -0.338113009929657 
C -0.13945284485816956 -0.10867723822593689 -0.6408804655075073 
C 0.19812244176864624 -0.6104140877723694 -1.8753877878189087 
N 0.9293181300163269 -0.9107534289360046 -2.7740561962127686 
C 0.980358898639679 0.7492981553077698 2.796851634979248 
N 0.3792640268802643 0.47339051961898804 1.8045454025268555 
H -1.502065658569336 0.37095463275909424 0.556242048740387 
H 0.5793159008026123 0.06594329327344894 0.4707983136177063 
