19

C 1.6752939224243164 -0.7860629558563232 -1.3340294361114502 
C 0.626342236995697 0.2658582329750061 -1.076094150543213 
C -0.7531980872154236 -0.08388116955757141 -1.3463904857635498 
C -0.32034382224082947 0.2776530385017395 0.6218113899230957 
C -1.5863189697265625 0.8300114274024963 1.1705338954925537 
C -1.1977828741073608 -0.6611477732658386 1.3774760961532593 
C 1.018999695777893 0.6480491161346436 0.9687915444374084 
H 2.6735830307006836 -0.4745611250400543 -0.9955678582191467 
H 1.4045170545578003 -1.7382206916809082 -0.8555048704147339 
H 1.6949280500411987 -0.9621807336807251 -2.4258360862731934 
H 0.9021416902542114 1.3025966882705688 -1.2809685468673706 
H -1.0145928859710693 -1.1345151662826538 -1.4176456928253174 
H -1.469778060913086 0.6975563168525696 -1.6089897155761719 
H -2.4299166202545166 1.0431220531463623 0.5179252028465271 
H -1.4820140600204468 1.5014452934265137 2.029644250869751 
H -0.8598803281784058 -0.9369606971740723 2.3800365924835205 
H -1.8148401975631714 -1.3877769708633423 0.8485949635505676 
H 1.7012012004852295 -0.12438052147626877 1.339521884918213 
H 1.2316595315933228 1.7233960628509521 1.0866923332214355 
