14

C 1.616384744644165 -1.6580982208251953 -1.4726899862289429 
N -0.04314804449677467 -1.2768983840942383 0.4047715365886688 
C 0.3182624280452728 -0.21790564060211182 -0.06389044970273972 
N 0.5278275609016418 0.9881063103675842 -0.5846982002258301 
C -1.7352776527404785 0.5943451523780823 0.9407398104667664 
O -2.5234766006469727 1.1336442232131958 0.18549329042434692 
N -1.490684986114502 0.9876242876052856 2.2042465209960938 
H 2.598510265350342 -1.469814419746399 -1.0355275869369507 
H 1.2877399921417236 -2.694314956665039 -1.418692946434021 
H 1.3749313354492188 -1.1636961698532104 -2.40046763420105 
H -0.26693111658096313 1.3329333066940308 -1.120987892150879 
H 1.4305951595306396 1.08152174949646 -1.066450834274292 
H -1.3965041637420654 1.9865105152130127 2.457064390182495 
H -1.6982285976409912 0.3760427236557007 2.971090316772461 
