19

C 0.9101839661598206 0.0638277679681778 2.725569009780884 
C -0.18685884773731232 -0.20652265846729279 1.667860746383667 
C 0.07643464207649231 0.5922993421554565 0.37560397386550903 
C -0.84010910987854 0.30499571561813354 -0.7869967818260193 
C 1.0029466152191162 0.04953267052769661 -0.6524237394332886 
C -0.010099968872964382 0.03792066127061844 -2.438688278198242 
O -1.1887446641921997 -0.3224093019962311 -3.156710386276245 
H 1.8998868465423584 -0.1428041309118271 2.299777030944824 
H 0.8747568130493164 1.1087960004806519 3.054042100906372 
H 0.7656056880950928 -0.5753655433654785 3.5981054306030273 
H -0.19823221862316132 -1.282359004020691 1.4109188318252563 
H -1.168012022972107 0.05412140116095543 2.0808136463165283 
H 0.1557432860136032 1.6674712896347046 0.5684931874275208 
H -1.4279403686523438 -0.6060851812362671 -0.6825557947158813 
H -1.384909987449646 1.177997350692749 -1.144497275352478 
H 0.9926698207855225 -1.0523601770401 -0.5671243667602539 
H 0.28125250339508057 1.0506465435028076 -2.780695676803589 
H 0.7950484156608582 -0.6647554636001587 -2.695235013961792 
H -1.349621295928955 -1.254947304725647 -2.87625789642334 
