16

C -0.7399301528930664 -0.408844918012619 1.5773117542266846 
C 0.29026103019714355 0.6282990574836731 1.1276293992996216 
C 1.2335745096206665 0.15922732651233673 -0.01813899725675583 
C 0.782156765460968 0.1687997430562973 -1.4422621726989746 
C -0.6697065234184265 0.23542088270187378 -1.7522913217544556 
O -0.5041607022285461 -1.2179710865020752 -1.7081412076950073 
H -0.2362281084060669 -1.3120039701461792 1.9559143781661987 
H -1.3965688943862915 -0.7238534092903137 0.754762589931488 
H -1.377760410308838 -0.0033149938099086285 2.3802201747894287 
H -0.20027625560760498 1.5665422677993774 0.8058779239654541 
H 0.9164356589317322 0.9170795679092407 1.9811919927597046 
H 1.656473159790039 -0.8248102068901062 0.24665766954421997 
H 2.08671498298645 0.868113100528717 -0.04885704070329666 
H 0.5158225297927856 -1.193347692489624 -2.1175684928894043 
H -0.9790218472480774 0.553904116153717 -2.7555434703826904 
H -1.3777858018875122 0.5867600440979004 -0.986762285232544 
