16

C 0.5149358510971069 1.7492133378982544 0.029261019080877304 
N 1.1051276922225952 0.521643340587616 -0.40663671493530273 
C 1.3373913764953613 -0.3618420958518982 0.6721281409263611 
C -0.7299951910972595 -0.5585297346115112 0.8157690167427063 
C -1.2775473594665527 -0.3478850722312927 -0.6132879257202148 
C 0.18515288829803467 -0.4656664729118347 -1.0961942672729492 
C 0.4249151945114136 -1.3875517845153809 0.15301917493343353 
H -0.009931175038218498 2.326544761657715 -0.7334931492805481 
H -0.4336360991001129 0.9474631547927856 0.8194974660873413 
H 1.221803069114685 2.348701238632202 0.6227593421936035 
H 1.5860410928726196 0.01069682091474533 1.6638948917388916 
H -1.217326283454895 -0.9432898163795471 1.7212343215942383 
H -1.832263469696045 -1.2433092594146729 -0.930822491645813 
H -1.8638204336166382 0.5609052181243896 -0.8149217963218689 
H 0.4756028354167938 -0.6734491586685181 -2.1294124126434326 
H 0.5135495662689209 -2.483644962310791 0.22720551490783691 
