14

N 1.6925793886184692 0.9288855791091919 1.176121473312378 
C 0.3426191508769989 0.7705758213996887 1.1327812671661377 
O -0.5055750608444214 1.2482179403305054 1.8350598812103271 
C 0.06108110770583153 -1.319320559501648 0.4080447554588318 
C -1.0993502140045166 -0.9739235639572144 -0.24921712279319763 
C -1.045446753501892 0.2231147587299347 -1.1389256715774536 
O -0.7757907509803772 -0.2938380837440491 -2.3151979446411133 
H 2.0401406288146973 1.744484782218933 1.6803340911865234 
H 2.234325885772705 0.6365250945091248 0.3705238699913025 
H 0.09391035884618759 -2.1475284099578857 1.1183795928955078 
H 1.0053848028182983 -1.1146831512451172 -0.09399339556694031 
H -2.025522470474243 -1.5430279970169067 -0.15720956027507782 
H -0.1497047394514084 0.8295800685882568 -0.5922107696533203 
H -1.9036585092544556 0.9337455630302429 -1.0281134843826294 
