16

O 1.3617501258850098 1.9432134628295898 -0.2546841502189636 
C 1.6977978944778442 0.6833003759384155 -0.4488905072212219 
C 0.6871808171272278 -0.48536181449890137 1.2369778156280518 
C -0.29305124282836914 -0.32261815667152405 0.10429967939853668 
C -1.6971445083618164 -0.847923219203949 0.074978768825531 
N -1.440806269645691 0.5905119180679321 0.37646904587745667 
C 0.5858972072601318 -0.16631212830543518 -1.127229928970337 
H 0.394408643245697 2.1061315536499023 -0.22783583402633667 
H 1.9515327215194702 -0.022236337885260582 0.5402518510818481 
H 0.9213374853134155 -1.5213234424591064 1.5056023597717285 
H 0.5735623240470886 0.1922122836112976 2.0958778858184814 
H -2.1191153526306152 -1.119728684425354 -0.8961808085441589 
H -2.052205801010132 -1.4507535696029663 0.9093789458274841 
H -1.6929734945297241 1.13103449344635 -0.44951117038726807 
H 0.1271628588438034 0.4062561094760895 -1.9607281684875488 
H 0.9946662187576294 -1.1164028644561768 -1.4787753820419312 
