11

O 0.906782865524292 1.1965795755386353 0.6219543218612671 
C 1.0436919927597046 0.18976299464702606 -0.30296289920806885 
C 1.1013071537017822 -1.1287264823913574 -0.04271678999066353 
C -1.7206852436065674 0.18661975860595703 -0.7755515575408936 
O -1.8861390352249146 0.7245380282402039 0.43295615911483765 
H 0.8833214640617371 0.7863209247589111 1.509594440460205 
H 1.1047635078430176 0.6029527187347412 -1.3057750463485718 
H 1.0206588506698608 -1.5299471616744995 0.9688489437103271 
H 1.2193808555603027 -1.8356908559799194 -0.8595147728919983 
H -2.258171319961548 -0.7994173169136047 -0.65611332654953 
H -1.366434931755066 1.560857892036438 0.4419175386428833 
