13

C 1.4727598428726196 -0.3402392864227295 0.32933467626571655 
C 0.5189602971076965 0.8833853006362915 0.25000473856925964 
C -0.4854675233364105 -0.16333125531673431 -1.2195276021957397 
C -1.6260979175567627 0.18834049999713898 -0.2082511931657791 
N -0.5841012597084045 0.06832776218652725 0.8714354038238525 
C 0.13497577607631683 -0.9862625598907471 0.0004975374322384596 
H 1.8152284622192383 -0.5128547549247742 1.358623743057251 
H 2.2750351428985596 -0.39905908703804016 -0.42096611857414246 
H 0.7604352235794067 1.914056658744812 0.5363809466362 
H 0.3160710036754608 0.8610811233520508 -1.0460889339447021 
H -2.3681180477142334 -0.6270594000816345 -0.18269172310829163 
H -2.119723320007324 1.1640995740890503 -0.3174968361854553 
H -0.10995782911777496 -2.0504844188690186 0.04874539002776146 
