16

C 0.1003953367471695 0.16823527216911316 -2.1303367614746094 
C -0.34117886424064636 0.18488693237304688 -0.6998251676559448 
O -1.6374430656433105 0.569886326789856 -0.547736406326294 
C 0.39395540952682495 -0.47851237654685974 0.3629801273345947 
C 0.25075310468673706 0.3425276577472687 1.6183124780654907 
C 0.15468348562717438 -1.1481716632843018 1.7561293840408325 
H 0.9153184294700623 -0.5526158809661865 -2.2503952980041504 
H -0.7210369110107422 -0.1339881718158722 -2.7918879985809326 
H 0.4536980986595154 1.1639466285705566 -2.431457996368408 
H 0.6273189187049866 1.7632116079330444 0.05920980125665665 
H -1.981706976890564 0.02252507023513317 0.2025846391916275 
H 1.422698974609375 -0.6646610498428345 0.05896011367440224 
H 0.8907393217086792 1.3984888792037964 1.0578652620315552 
H -0.7814510464668274 0.7446474432945251 1.6951714754104614 
H 1.0342676639556885 -1.723793864250183 2.051875114440918 
H -0.7810119390487671 -1.6566131114959717 1.9885512590408325 
