11

N 1.122515320777893 -0.8856877684593201 -0.8501693606376648 
C 0.6826449036598206 0.41527649760246277 -0.6587145328521729 
O 1.281846523284912 1.4073971509933472 -1.062178611755371 
C -0.6699450016021729 0.5701082944869995 0.05168784037232399 
C -0.32537829875946045 -0.23285435140132904 1.6890137195587158 
O -1.10025954246521 -0.8796656727790833 0.8281099200248718 
H 0.3897660970687866 -1.6052954196929932 -0.8237224221229553 
H 1.752569556236267 -0.9913696646690369 -1.6543420553207397 
H -0.7231206893920898 1.5418732166290283 0.553238570690155 
H -1.5195577144622803 0.49916964769363403 -0.6504951119422913 
H -0.8910814523696899 0.1610483080148697 2.5775718688964844 
