11

C 0.9430198073387146 -0.6741809248924255 0.38156604766845703 
C -0.8678228855133057 -0.49918708205223083 0.35071471333503723 
C -0.9087299108505249 1.0331733226776123 0.07669168710708618 
O -0.1403513252735138 0.9444395899772644 -1.178764820098877 
C 0.029386401176452637 -0.43716031312942505 -0.8555337190628052 
H 1.5863757133483887 0.14993344247341156 0.6849358081817627 
H 1.4226205348968506 -1.664639949798584 0.33852529525756836 
H 0.13265572488307953 -0.8702343106269836 1.2620048522949219 
H -0.4452572166919708 1.726372241973877 0.7911747097969055 
H -1.9260835647583008 1.3914868831634521 -0.13504700362682343 
H 0.1741868257522583 -1.1000030040740967 -1.7162675857543945 
