16

C -0.7254199981689453 -1.0510693788528442 1.0094941854476929 
C -0.08374909311532974 0.19066697359085083 0.3616560995578766 
C 1.1708039045333862 0.6787298321723938 1.102440357208252 
C 0.26339343190193176 -0.1045573353767395 -1.0992107391357422 
C -0.8604193329811096 0.5489999055862427 -2.4701855182647705 
O 0.35311877727508545 1.0510027408599854 -1.9282269477844238 
H -1.6744070053100586 -1.3175538778305054 0.5145747661590576 
H -0.06635848432779312 -1.9296250343322754 0.9434276819229126 
H -0.9582757353782654 -0.865200936794281 2.0611753463745117 
H -0.8212071061134338 1.0030728578567505 0.34479275345802307 
H 1.915948748588562 -0.11849026381969452 1.1918407678604126 
H 1.6362688541412354 1.5225439071655273 0.5694031119346619 
H 0.9204410910606384 1.0021791458129883 2.1155927181243896 
H 1.1402007341384888 -0.747610867023468 -1.2397816181182861 
H -1.6852174997329712 0.8926653265953064 -1.7865352630615234 
H -0.5251211524009705 -0.755753219127655 -1.6904579401016235 
