19

C -1.3148624897003174 0.9500619769096375 1.0665591955184937 
C -0.03689538687467575 0.5622738003730774 0.5043452978134155 
C 0.4457307755947113 1.4215153455734253 -0.7186293601989746 
C 1.4674410820007324 0.5079022645950317 -1.3869788646697998 
O 1.084486961364746 -0.8660580515861511 -1.0363378524780273 
C 0.14149123430252075 -0.8373074531555176 -0.07037394493818283 
C 0.07981013506650925 -2.0511088371276855 0.8079505562782288 
H -2.0826969146728516 -0.08491642028093338 -0.36777862906455994 
H -1.6805517673492432 0.4409024119377136 1.9589734077453613 
H -1.774956226348877 1.9152199029922485 0.8471931219100952 
H 0.7553185820579529 0.6245009899139404 1.2825664281845093 
H 0.8517671227455139 2.3919742107391357 -0.41895827651023865 
H -0.41453954577445984 1.5973061323165894 -1.380378007888794 
H 2.486175298690796 0.6345657110214233 -0.988966166973114 
H 1.5134263038635254 0.5452726483345032 -2.4801273345947266 
H -1.7310789823532104 -0.7096839547157288 -0.7170504331588745 
H -0.7913486957550049 -1.9615461826324463 1.4811060428619385 
H 0.0023269937373697758 -2.96128249168396 0.20382344722747803 
H 0.998955488204956 -2.119591474533081 1.4130610227584839 
