11

N -1.7473573684692383 -0.3876516819000244 -0.45718130469322205 
C -0.419462651014328 -0.12740717828273773 -0.0704755112528801 
C 0.7208114862442017 -1.0269066095352173 -0.3441605567932129 
N 1.7473574876785278 -0.14151853322982788 -0.13934975862503052 
N 1.4475696086883545 1.1685365438461304 0.1731356382369995 
C 0.1358553022146225 1.2009334564208984 0.20767483115196228 
H -2.434051275253296 -0.19335784018039703 0.27062904834747314 
H -1.8418253660202026 -1.351056456565857 -0.77883380651474 
H -0.011191428638994694 -0.8613216876983643 0.860771894454956 
H 2.7304718494415283 -0.3882131278514862 -0.15073217451572418 
H -0.3966977298259735 2.1217873096466064 0.4240427315235138 
