13

C -0.9854536652565002 0.3919394910335541 0.6133148670196533 
C -0.6336893439292908 0.44607236981391907 -0.878663182258606 
O -0.6048651933670044 -1.5536407232284546 -0.43831419944763184 
C -0.15518631041049957 -0.9088468551635742 0.7152268290519714 
C 1.2643383741378784 -0.6147312521934509 0.3396291434764862 
O 1.6394938230514526 0.5487850904464722 -0.10913487523794174 
C 0.6938225626945496 0.8234240412712097 -1.1288235187530518 
H -0.6283425688743591 1.248828649520874 1.2132983207702637 
H -2.040919065475464 0.18615977466106415 0.80055171251297 
H -1.3926234245300293 0.5642843842506409 -1.6566427946090698 
H -0.23656396567821503 -1.484235167503357 1.66370689868927 
H 2.0764315128326416 -1.2777842283248901 0.6523398160934448 
H 1.0035572052001953 1.6297447681427002 -1.7864891290664673 
