13

O 0.8327664732933044 0.866559624671936 2.485144853591919 
C 1.0424716472625732 0.803154468536377 1.268935203552246 
C 0.1283823698759079 0.1669764518737793 0.33199721574783325 
C -1.3611621856689453 0.41582971811294556 0.08030644804239273 
C -0.7639812231063843 -0.8867818117141724 0.41303232312202454 
C 0.9902513027191162 0.24939951300621033 -1.5185000896453857 
O 2.115084171295166 0.5103656053543091 -1.63126802444458 
H 1.9577382802963257 1.2337173223495483 0.810120701789856 
H -1.9173787832260132 0.9698997735977173 0.8465951681137085 
H -1.680769920349121 0.5850788950920105 -0.9544801712036133 
H -0.4920772314071655 -1.6424542665481567 -1.1995875835418701 
H -0.8778555393218994 -1.8848942518234253 0.8275981545448303 
H 0.026530656963586807 -1.386851191520691 -1.7598940134048462 
