17

C 1.0349071025848389 -0.6383238434791565 1.8111927509307861 
C -0.09390653669834137 0.13772258162498474 1.1157163381576538 
C 0.3101300299167633 1.192497730255127 0.04779228940606117 
C -0.28198888897895813 0.34943532943725586 -0.9445904493331909 
O -0.8183603286743164 1.4709371328353882 -2.1539156436920166 
C -0.029126381501555443 -1.0850791931152344 -1.2386195659637451 
C -0.866277277469635 -0.6543879508972168 -0.0013238555984571576 
H 1.7341183423995972 -1.0990797281265259 1.1039307117462158 
H 1.6179639101028442 0.03889419883489609 2.4592370986938477 
H 0.6295071840286255 -1.4356950521469116 2.45300555229187 
H -0.7899882793426514 0.5414482951164246 1.8610587120056152 
H 1.3287550210952759 1.5756484270095825 -0.046134915202856064 
H -0.4330325126647949 2.0629756450653076 -1.2722742557525635 
H -1.7900360822677612 1.562765121459961 -2.0941343307495117 
H -0.6250560283660889 -1.513159990310669 -2.0428597927093506 
H 0.9694481492042542 -1.5151188373565674 -1.1404130458831787 
H -1.8970571756362915 -0.9914796948432922 0.08233273774385452 
