16

C -0.8075165748596191 -0.5650445222854614 -2.617380142211914 
N -0.9622766375541687 -0.2978140413761139 -1.1944880485534668 
C 0.162464439868927 0.42767977714538574 -0.4122556447982788 
C 0.6057458519935608 -0.3537772297859192 0.7259759902954102 
O -0.06962175667285919 -1.2839847803115845 1.1700903177261353 
O 1.4729888439178467 0.3426622450351715 1.516742467880249 
C 0.9093976020812988 0.7249410152435303 2.8128435611724854 
H 0.034574542194604874 -1.2533644437789917 -2.796825408935547 
H -1.7220263481140137 -1.0108083486557007 -3.0294198989868164 
H -0.5660678744316101 0.35329577326774597 -3.1675543785095215 
H -1.1836854219436646 -1.128897786140442 -0.630977988243103 
H -1.1754438877105713 0.7393345832824707 -0.7597527503967285 
H 0.9358826279640198 0.8770315647125244 -1.0307766199111938 
H -0.0764966532588005 1.1837351322174072 2.734243154525757 
H 1.6253745555877686 1.4325859546661377 3.2497520446777344 
H 0.8167070150375366 -0.18757455050945282 3.429781913757324 
