14

C -0.673973798751831 -1.2267581224441528 0.81710284948349 
C 0.03635530173778534 -0.5403980612754822 -0.3498357832431793 
O -0.6950510740280151 -0.4062144458293915 -1.5457890033721924 
C 1.2069728374481201 0.45431703329086304 -0.09816329926252365 
C 0.1484169214963913 1.4097062349319458 0.2653633952140808 
O -0.5468630790710449 2.026878833770752 -0.6711664199829102 
H -1.6189357042312622 -0.7272405624389648 1.0752453804016113 
H -0.02653289958834648 -1.2940895557403564 1.702070713043213 
H -0.9268735647201538 -2.2574541568756104 0.5031315088272095 
H 0.34466373920440674 -1.2022833824157715 -1.3164277076721191 
H 1.8720066547393799 0.1424897015094757 0.7146074175834656 
H 1.7434548139572144 0.6962169408798218 -1.0284547805786133 
H -0.1457490622997284 1.5379494428634644 1.311943531036377 
H -0.7178912162780762 1.386879801750183 -1.3796279430389404 
