12

O 2.696136474609375 1.1285531520843506 0.48508936166763306 
C 1.6891552209854126 0.7497002482414246 -0.02831965498626232 
O 1.2140593528747559 -0.947414755821228 0.3685433864593506 
C -0.005544106941670179 -0.9725197553634644 0.7277853488922119 
C -1.2762376070022583 -0.10119113326072693 -0.8880882859230042 
C -0.794142484664917 0.2383413016796112 0.4192737936973572 
H 1.3673288822174072 0.7505391836166382 -1.0927379131317139 
H -0.42803746461868286 -1.8861173391342163 1.15924072265625 
H -0.620980978012085 -0.5605878829956055 -1.624781847000122 
H -2.320652961730957 0.0446329228579998 -1.156888484954834 
H 0.14131292700767517 1.038934350013733 0.45693710446357727 
H -1.5759642124176025 0.5208567380905151 1.1328084468841553 
