10

O -2.4701125621795654 -0.05898666009306908 0.10974691808223724 
C -1.4208543300628662 -0.6124575138092041 0.17304077744483948 
O -0.20583733916282654 0.15245139598846436 0.4655812084674835 
C 0.2734442353248596 1.7161730527877808 -0.03731232509016991 
C 1.0128791332244873 -0.3972391188144684 0.2647568881511688 
C 1.7750847339630127 -1.3662458658218384 0.22737033665180206 
H -1.1349518299102783 -1.6655772924423218 0.02919887937605381 
H -0.4528549313545227 1.8541213274002075 -0.8588865399360657 
H -0.08891113102436066 2.278414726257324 0.8401825428009033 
H 2.7193679809570312 -1.8427621126174927 0.050087347626686096 
