13

C -1.569632887840271 -0.8752779364585876 0.36742448806762695 
C -0.7177445888519287 0.15888096392154694 -0.33089378476142883 
N -0.19621194899082184 1.360406756401062 0.4159886837005615 
C 0.6969246864318848 0.31165584921836853 0.07023605704307556 
C 1.7186994552612305 -0.4089467227458954 0.8608630895614624 
C 2.295366048812866 0.06749236583709717 -0.253288209438324 
H -1.119765043258667 -1.1669353246688843 1.3250036239624023 
H -2.5802690982818604 -0.48109179735183716 0.5491639375686646 
H -1.6632624864578247 -1.7766226530075073 -0.2543736696243286 
H -1.0228580236434937 0.4199530780315399 -1.3474773168563843 
H -0.40534570813179016 1.3291934728622437 1.4214884042739868 
H 1.3632806539535522 0.5735342502593994 -1.0654799938201904 
H 3.1849617958068848 0.5808717608451843 -0.6207272410392761 
