10

C -1.2578816413879395 0.07414354383945465 0.2944602966308594 
C -0.8611552119255066 0.7275847792625427 -0.9280234575271606 
N 0.41376635432243347 0.9927763938903809 -1.1357665061950684 
C 1.2986876964569092 0.40342026948928833 -0.3019494116306305 
C 0.8687831163406372 -0.7419679164886475 0.4176379442214966 
N -0.36056432127952576 -0.8044539093971252 0.9183710813522339 
H -2.044670820236206 0.4711570143699646 0.9625326991081238 
H -1.9303468465805054 -0.3978715240955353 -0.6269770860671997 
H 2.3031320571899414 0.8340111970901489 -0.2408374845981598 
H 1.5702496767044067 -1.5587999820709229 0.640551745891571 
