13

C 0.19898374378681183 1.2910356521606445 -0.8001437187194824 
C 1.2296422719955444 -0.38377267122268677 -0.29171842336654663 
C 0.803549587726593 -0.5573242902755737 1.1247531175613403 
N -0.3362357020378113 0.13604125380516052 0.5403798818588257 
C -1.4330857992172241 -0.6458231806755066 0.12543781101703644 
O -2.465240955352783 -0.1112864539027214 -0.26867279410362244 
H -0.7953253388404846 1.7586050033569336 -0.7199000716209412 
H 0.3801863193511963 1.019758701324463 -1.8420456647872925 
H 0.9476654529571533 1.9775887727737427 -0.39825016260147095 
H 0.8459525108337402 -1.2263004779815674 -0.8950015306472778 
H 0.5172143578529358 -1.5510326623916626 1.4943745136260986 
H 1.3529053926467896 0.028632545843720436 1.8692772388458252 
H -1.2462116479873657 -1.736122488975525 0.061509814113378525 
