12

C -0.891649067401886 0.9796337485313416 1.017918348312378 
C -0.12501783668994904 -0.620071530342102 0.7379719614982605 
C 0.4707491993904114 0.7771900296211243 0.47853314876556396 
C 0.6496515870094299 0.37564781308174133 -1.0320134162902832 
O -0.6136358976364136 -0.0005270236288197339 -1.618943452835083 
C 0.033697839826345444 -0.9545284509658813 -0.7891271114349365 
H -1.6155017614364624 1.0016504526138306 0.21390260756015778 
H -1.121306300163269 -0.2438991516828537 1.4518258571624756 
H 0.33880892395973206 -1.2731918096542358 1.4843363761901855 
H 1.3371175527572632 1.1846940517425537 0.9961767196655273 
H 1.4017244577407837 0.7236572504043579 -1.7369046211242676 
H 0.13536125421524048 -1.950255274772644 -1.2036762237548828 
